5
-16.283055001917
C           2.37260620266264   -0.00003089948619    0.12293726389281
Cl          1.86884122888722   -0.00003289589377   -1.57312423001465
Cl          1.77251222928805    1.45094924130511    0.93828443712862
H           3.46324080443837   -0.00004220426787    0.16472597677036
Cl          1.77248159757282   -1.45099111308599    0.93829728358428
