20
-39.772219314534
C           1.31877146249652   -0.35412734617320   -0.13643155913449
Cl          3.00251267729387   -0.90736956326100   -0.12120135439458
Cl          1.05349421676692    0.72457076820248   -1.51510372265779
H           0.64767517133282   -1.21823953242169   -0.22585576052613
Cl          0.95302330135336    0.50299864378327    1.36624626681193
C          -2.51246686442961    2.08774741046908    0.09716370282444
H          -2.88716163209035    2.69676779671091   -0.72970897498442
O          -3.11389817332925    0.81465135074584    0.10483228434591
H          -1.42256297563380    2.01619364556825    0.02003302815856
H          -2.77142350205538    2.57328565546120    1.03754128279086
H          -2.89296671773143    0.36234149617272   -0.74067273636696
O          -2.09434854653302   -1.04455955152309    1.78332651180681
H          -1.45470391081902   -0.56851377217854    2.31764677327250
H          -2.59163603734103   -0.36356003234233    1.27873997525757
O          -0.98750041646047   -2.31909900990474   -0.25654652307127
H          -1.28360587711353   -3.23009002937095   -0.28833311383575
H          -1.41587048952770   -1.91961922009860    0.54334233549819
O          -2.08223228749793   -0.52944017044608   -2.02421013806515
H          -1.34254505059603   -0.08244348878287   -2.44157153458219
H          -1.69999753002722   -1.25458219507400   -1.49331857868818
