11
-24.517103643585
C          -1.92380673849363   -1.50540268002477    1.40791154974386
Cl         -1.54206170917682    0.12068826782238    0.82486420959298
Cl         -0.90310312456067   -1.89864980336821    2.79807797397699
H          -1.72173196286955   -2.22196940828850    0.60328528899836
Cl         -3.62983985878924   -1.59919750883122    1.86358311761022
C           0.66207472040459   -2.99785844972868   -0.69254074783132
H           1.23376179398135   -3.72461549642708   -1.27595544627202
O          -0.72467885271010   -3.12672300714290   -0.92568974329952
H           1.01333723032845   -1.98853139889352   -0.92758826455348
H           0.81953828739460   -3.19086568305555    0.36691427674258
H          -0.89819933775445   -2.99173145493044   -1.86341473281397
