26
-49.944226303396
C           1.48225686374137   -0.24807103026257    0.10344923474333
Cl          2.41009020571537   -1.75451484446648    0.15822084289213
Cl          0.84386886852179    0.11374481170632    1.70934076109088
H           0.64534573424744   -0.37242789392247   -0.59273311474619
Cl          2.51574416392415    1.07447153119806   -0.44617735649047
C          -0.50352096381411    2.98429022144394   -0.48488275598881
H           0.15688117435148    3.16221737977326    0.36809606526991
O          -0.94985585529953    1.65078756708283   -0.51460406475532
H           0.05301523992632    3.15684025450136   -1.40490475233843
H          -1.34312536003910    3.68591284509459   -0.43933448518416
H          -1.42509249044862    1.45889392519620    0.31976077701996
O          -4.09852330748677   -0.43245372514596   -0.11324787931489
H          -3.54091151553938   -0.24807617429679   -0.92577234245083
H          -4.98092396198311   -0.62608454447004   -0.42988904667331
O          -2.48452003588955    0.03760210572981   -2.11172530419021
H          -1.87109596766937   -0.71695370663549   -2.05725946270845
H          -1.96512280981085    0.78050879915375   -1.75975492333754
O          -0.70414911231225   -1.88390842789791   -1.32953194033479
H          -1.13492699231610   -1.96692255020092   -0.44614085368816
H          -0.45591912085190   -2.76996395218643   -1.59450915341645
O          -1.99986682982536   -1.86377738325171    1.00894299204257
H          -1.63114681895349   -1.15435980431990    1.54511542308937
H          -2.85627414096927   -1.52983719877815    0.69268287547867
O          -2.59411030096703    1.05039781241613    1.61887521316023
H          -3.07181523381666    1.68898811922160    2.14923259490867
H          -3.25380912371278    0.58245446001258    1.07427018439479
