26
-49.944768378084
C           1.54910951796572    0.15940299199048    0.10408416840846
Cl          1.01294151339860    0.44797201742317   -1.54538458466196
Cl          2.64383623053644    1.45068491052619    0.61030127973986
H           0.67923969519912    0.13495042682153    0.76818798074820
Cl          2.37085294695190   -1.40733619113219    0.18835815315117
C          -1.38414250954173   -2.58913764017476   -1.21402146460023
H          -0.84040104082207   -1.72496319413431   -1.60529412056583
O          -2.00965810921044   -2.29147478260974    0.01482130385865
H          -2.11503526071563   -2.92039533339173   -1.95632080124270
H          -0.67919233670999   -3.39791623236436   -1.02708395377147
H          -2.63521030548698   -1.55162532821298   -0.12529792083406
O          -2.03511206295111    1.73037235580313   -1.60890921296311
H          -1.38399765250086    1.36489922605327   -2.21163218673894
H          -1.51730508828225    2.07087341522567   -0.84255626782047
O          -0.50772782978546   -1.20304127960097    1.97186793353116
H          -0.32045405171955   -1.84155257346698    2.66080644428630
H          -0.99136547509625   -1.68680083562130    1.26635074724684
O          -3.52788231307509   -0.02347523442636   -0.31522750767767
H          -2.99947507324263    0.62512374945226   -0.84931675149287
H          -4.44528188501264    0.11490045993065   -0.55276546342626
O          -2.30636257200536    0.86105535062814    2.04910646540887
H          -1.67490005776997    0.13812839500461    2.21247483526307
H          -2.88514456372870    0.53626149021772    1.34007912144090
O          -0.70335051404137    2.39989784200275    0.61551955730230
H          -0.71547869067164    3.30539278417660    0.92731512144626
H          -1.28963146523302    1.88762143711786    1.23092859681643
