20
-39.771584979232
C          -1.16898944033827   -0.14805428493990    0.32745185542377
Cl         -2.34784356765353   -1.28928508067893    0.99930307590600
Cl         -0.65822727470503   -0.69129854923607   -1.27452373497366
H          -0.29281244953045   -0.09624032526792    0.98689811267938
Cl         -1.88998652011726    1.46443581796416    0.20551396958876
C           2.76478224676894   -2.07459581216681   -0.19885824933856
H           3.04017750865408   -2.64738864366591    0.69127857857294
O           3.01513896067189   -0.70150365130769   -0.02078584488278
H           1.71213083048118   -2.26384057006596   -0.43213510816834
H           3.37938957253550   -2.40571568513168   -1.03494010845601
H           2.47344440334455   -0.37364082813805    0.72736968185670
O           1.38749152659684    0.47508052337209    1.86216790536171
H           1.75428367438544    0.63637236685189    2.73283384502543
H           1.39549826682973    1.34971325441160    1.39534117990936
O           1.34486902387060    2.68669110647591    0.41214803245629
H           1.71731567397097    2.30907836219124   -0.41677149677762
H           0.47187877834489    3.01687474618809    0.18984991489869
O           2.14004917691883    1.26284234041995   -1.72480591317545
H           2.62134584522111    0.56485487037962   -1.23969806978062
H           1.40266719753673    0.82485404829678   -2.15680622354843
