29
-55.036023426108
C           2.03940448887283    0.01499385838247   -0.23897072606403
Cl          1.44595629297627    1.66469248766536   -0.43211605310050
Cl          3.62562689880798   -0.14567487967775   -1.01601853567878
H           1.32950239247426   -0.67733762722024   -0.71401457577432
Cl          2.17291340267666   -0.37624073839183    1.48374472796576
C          -1.94755575642284    2.89615821731993   -0.93795561286327
H          -0.91928938123235    2.95521083560042   -1.30222692685326
O          -2.27661222103197    1.58204202582939   -0.55146422427089
H          -2.62913571393814    3.17289670256446   -1.74124883893287
H          -2.07317739377142    3.59378623048242   -0.10554614894042
H          -1.68762193913574    1.29894468216336    0.18647863443270
O          -1.10729599307513    0.53398862983335    1.65782164139225
H          -0.25096930980001    0.77299585681363    2.01624727190621
H          -1.06516557504514   -0.44472255961193    1.48931320876046
O          -3.92608167670041    0.43777995605372    1.38346795242947
H          -3.10627392280115    0.46422618916904    1.89588468134867
H          -3.75320971720722    1.01600419997817    0.62609891942617
O          -0.01260251735694   -1.85170903071778   -1.45934274373565
H           0.13693758008641   -2.56964397798417   -2.07544696917971
H          -0.86509534855721   -1.42054845733453   -1.73893348392329
O          -2.36729272101666   -0.79702803991913   -1.96567241700199
H          -2.34782738891459    0.11973239073973   -1.64354169874331
H          -2.92876957647984   -1.27633731651931   -1.33391090537230
O          -1.09497587352052   -2.03938240130100    1.06616193450680
H          -0.59330159158620   -2.09193779322969    0.23430099820867
H          -2.02269016233076   -2.18376804386250    0.81747604027308
O          -3.73026594269952   -1.92171424010170    0.18738087291665
H          -3.89182545417321   -1.06999870507103    0.66788046417323
H          -4.50913836787475   -2.46275689184510    0.31804928571817
