26
-49.944921423266
C          -1.84723093689432   -0.69840589803577    0.37186458276272
Cl         -2.88295393155846   -2.10194168634115    0.67222619193414
Cl         -1.51393182570834    0.13592964505612    1.89657102458764
H          -0.89064255240869   -1.02504532405809   -0.06117647001674
Cl         -2.64614886852401    0.41828481561201   -0.75005391868168
C           0.44743700240735    2.99027045110524   -0.03258574616861
H          -0.22138622335962    2.16939999568008   -0.30778220650731
O           1.78099902612701    2.54788333603147    0.09714111518579
H           0.43493918771913    3.74234940057894   -0.82111643326498
H           0.09133561407024    3.44489554673208    0.89484655762740
H           1.82432552848278    1.87919085908111    0.81941865089357
O           2.62680617423254    0.80468602514403   -1.74564824694613
H           2.38740058475911    1.54653699382042   -1.13253310232657
H           2.93139544740940    1.21117576286166   -2.55727778280372
O           1.82182649404268    0.33529249786889    1.66224789973728
H           1.45766776858467   -0.17428867713969    0.90442937029827
H           1.21623977748562    0.22527749050398    2.39746547826571
O           1.03424513024192   -1.08396741106722   -0.47519371777058
H           1.63384351499286   -1.85150154350099   -0.36027847117071
H           1.46321287565637   -0.53248745607181   -1.14780145523769
O           3.09267418471134   -2.76580503967202   -0.07443444079860
H           3.60279662861619   -3.30404717673523   -0.68141137549704
H           3.64924684418068   -1.97706240801165    0.12182611113039
O           4.21838623474254   -0.36451041453478    0.27856829583109
H           3.83975740502249    0.06822092827719   -0.50430803493327
H           3.71005415979311   -0.02327142713041    1.02582511304824
