17
-32.754750225023
C           0.81640357777608    0.02687259554478   -0.08337173820754
Cl          2.36531788877469   -0.63502313039653   -0.62240532428911
Cl          0.59064393350977   -0.29589986934413    1.64220281589760
H          -0.00711234363891   -0.44682569310222   -0.64292047676767
Cl          0.77569638700943    1.77164953661930   -0.37245145077157
C          -1.93623288344332   -2.49164409023579   -0.67130223470392
H          -1.85954630578916   -2.50024240095730    0.42089981042415
O          -1.68621397208323   -1.20823844008063   -1.19443526362198
H          -2.92685993246468   -2.85255636992765   -0.96128555578032
H          -1.18068697304011   -3.15818425087208   -1.08537976806996
H          -2.36019685348023   -0.59664141460569   -0.84368995295393
C          -2.81712659074428    1.30533772261423    1.04333181735897
H          -1.93132114267998    1.88180272735818    0.76474523071011
O          -3.41696677110796    0.70314242455557   -0.08756862387584
H          -3.52428693048886    1.95498067363445    1.56538381153393
H          -2.52083054870728    0.49638688763007    1.70794882268292
H          -3.67955784954788    1.39306287508963   -0.70624663037224
