29
-53.100617330336
C           1.57220353833904    0.19182225943109   -0.18922595298439
Cl          2.61066831827368    0.98478156331951   -1.37823783960299
Cl          2.40503919541854   -1.20483477798590    0.51391622547147
H           0.65372906672496   -0.15773473491391   -0.67537890559859
Cl          1.15736782256941    1.32573997943901    1.08972779912690
C          -0.21655023366826   -3.06449678439951   -1.41787822439897
H          -1.06634075388371   -3.74329537593355   -1.53028237241817
O          -0.63635802443313   -1.78850340503933   -0.99462963672825
H           0.27081254569142   -2.93858614484679   -2.38398859919782
H           0.49691629862824   -3.49806511993100   -0.71204301876452
H          -1.09721614455037   -1.87721609686298   -0.12760385142154
C          -1.31552743947238   -1.37390136821776    2.46606730777082
H          -1.98103012686050   -1.22557048013044    3.32054762955642
O          -2.04162121987735   -1.74878814560168    1.31644154608078
H          -0.62872361201682   -2.18853834635542    2.69146164521675
H          -0.74062897910417   -0.45933427183131    2.29555318394018
H          -2.65626152010688   -1.02306389889795    1.08585147941914
O          -0.71433217480054    1.92480592961577   -1.63784018686016
H          -1.35409496817161    1.21075048832919   -1.89197764058582
H          -0.72368875528754    2.55941208412276   -2.35528225106910
O          -3.51544900133573    0.42627476283802    0.50272522514291
H          -4.41440302283092    0.70810465685088    0.67549637962639
H          -2.94342163916197    1.22860959172192    0.61936285640996
O          -1.91010608640680    2.51729183699063    0.68353062936094
H          -1.22807760915476    2.48121195802086    1.35746974472091
H          -1.43598392346978    2.40492785298027   -0.17310931258479
O          -2.45631738039831   -0.02557935835543   -2.05206444299912
H          -2.98142202989928    0.06450542519398   -1.23968538250283
H          -1.85275921780878   -0.76906923241249   -1.88350807024730
