26
-48.012344010690
C           1.23263368758822   -0.20547729000258   -0.67661133235679
Cl          2.22842942546700    0.90945404963466    0.25973026344625
Cl          0.86495478631242    0.49823261489929   -2.25438065982323
H           0.29700449957202   -0.40103067854809   -0.13495263566854
Cl          2.09466749805807   -1.74114804119648   -0.88679270696026
C          -2.98444548056928   -0.08991793753627   -1.97778674498767
H          -1.99570529004939   -0.22527779531702   -2.42531260846236
O          -2.88782375817036    0.34628707961439   -0.64034876867433
H          -3.54044515145801   -1.02885024353270   -2.04669670969712
H          -3.52324553392814    0.67974371761129   -2.52903426365781
H          -2.39996793507564   -0.33382931953550   -0.12941264992937
C          -1.23819997407588   -2.71488683533614    0.81699064766746
H          -1.19264685762784   -3.07671815424853   -0.21003081186073
O          -1.23837135814157   -1.30625729767501    0.76698271864998
H          -0.36951812156870   -3.08708526772307    1.36482789200787
H          -2.14843053939929   -3.09266651418794    1.29114001478195
H          -1.24361591827508   -0.95313121443252    1.69567415110662
O          -0.13903576364211    2.07563862315614    2.35955550705888
H           0.81279038030788    2.00789688169605    2.25685941836611
H          -0.49369203229409    2.20129190718030    1.45344389466911
O          -1.10118702033038    2.34091204746844   -0.15280000559884
H          -1.50658592750734    3.18838180385043   -0.34255631317010
H          -1.77517502912704    1.65940048898823   -0.35774421354452
O          -1.25946626511010   -0.19789366155312    3.17671629656068
H          -0.80412819458430    0.65126858293325    2.96268651925857
H          -2.11834123389361    0.04749398339428    3.52469469326672
