32
-58.186037573633
C          -1.51035987727563    0.04297408551905    0.18252055883381
Cl         -1.62693326592693   -1.44508301433473    1.11147263983821
Cl         -1.96490885393491   -0.26117784983961   -1.49543911350673
H          -0.48108871561885    0.41423816252587    0.20911794347447
Cl         -2.57673973683971    1.27012804633793    0.88120340280797
C           0.18039674422700    2.77192623447635   -1.77052180650847
H          -0.41995468707822    2.24156815343272   -2.51493245324962
O           0.80133097124306    1.87391350836798   -0.88221627821117
H          -0.47452956138778    3.40689024044361   -1.17562369979521
H           0.91684103785361    3.39882810547146   -2.28238574570009
H           1.39164836874425    1.27956832216382   -1.38722836264535
C           0.52347307244851   -3.18937960953504   -1.32016424106815
H          -0.26025311329342   -3.58406941992254   -0.66897784755721
O           0.86263303612012   -1.87177412413039   -0.95886361687887
H           0.14790731732259   -3.15721432011512   -2.34225698397516
H           1.39469684868046   -3.85112670483688   -1.27769689623257
H           1.17565516288731   -1.86573006891995   -0.02572336522110
O           3.70419847650530    0.07793481030064    0.40318392297009
H           3.22230333629130   -0.64916280127807    0.82055695519168
H           3.42140515201166    0.08945523974694   -0.52114940553859
O           2.38185094607129   -0.01657183767854   -2.12722157752745
H           1.81521399859771   -0.75086118301132   -1.80091916236703
H           2.53046858809562   -0.16903690283048   -3.06144226641226
O           0.60489227383214    0.42792472791715    2.52110171802480
H           1.20989208531127    1.13807745864027    2.16231907995807
H           0.54342366085040    0.58698689251152    3.46355749076265
O           2.26585737232579    2.13405511873913    1.44440345155941
H           2.95635490376120    1.50376844075575    1.14993932675991
H           1.75242050918867    2.32908080226886    0.64502902113540
O           1.81314875822003   -1.71657002479106    1.57171382845173
H           1.32303593353714   -0.93739529594511    1.94240479292919
H           1.67318542885259   -2.43872807846234    2.18545490164052
