35
-63.284479418832
C          -2.59007367726395    0.17175427202752   -0.34150264619670
Cl         -3.61418456970256    0.27123325668249   -1.78214670455723
Cl         -2.22616957826462   -1.51927368474609    0.02214631989519
H          -1.64571977630952    0.69699577164397   -0.52888838919267
Cl         -3.41154492907992    0.91977570178747    1.03856443250249
C           3.30890605047776    3.11392172219582   -1.31206506662655
H           2.92091053466375    3.86168273701997   -0.61573518687397
O           2.83887449055496    1.82719680919899   -0.98465785394328
H           2.95610111796724    3.34323013884364   -2.31718177087531
H           4.40106755897459    3.14635647273049   -1.29911002122286
H           3.15321268937545    1.59160375214411   -0.06356963727774
C          -0.06396171118143    0.31605884952874    2.81691238315721
H          -0.95279310847412   -0.27908669267561    2.59394775036733
O           0.95189138230506    0.08086041036045    1.86845288210798
H          -0.33788419845316    1.37338881271162    2.84561297896473
H           0.32832566279094    0.02168322722312    3.78943906942630
H           0.63689373153731    0.38181165813171    0.97512830881244
O           3.53925129603868    0.97401818541286    1.40768659749929
H           3.96182470895612    0.12798029914574    1.17908291142900
H           2.68039875528318    0.73676481881054    1.79335528096757
O           3.51377131946963   -0.66132881057176   -1.99827049423959
H           3.33805879368282    0.28162669442914   -1.83702256233161
H           2.64175921399942   -1.08429722961564   -2.04496507868835
O           1.81915198819110   -2.35825192093473    0.89267974597908
H           1.46027451431285   -1.62508953660792    1.42112254552224
H           2.77353342979526   -2.18219200575447    0.82310661152762
O           0.98194566460215   -1.69494894689919   -1.50020626958402
H           1.26838604975876   -2.03417038761421   -0.60517208100044
H           0.30031940634397   -2.29290352230501   -1.80809324634674
O           4.36512243453148   -1.44293990313658    0.36580929970724
H           4.11642190127216   -1.18170700414058   -0.56319154618773
H           5.21114887942592   -1.88676520566386    0.30675834160834
O           0.33809864367283    0.78010042756948   -0.63195873486334
H           0.51300013857890   -0.09176370867689   -1.04479992177781
H           1.11393279851293    1.32424030008598   -0.85712381119302
