23
-42.928048173002
C          -1.16990296012301   -0.51387587005963   -1.21967073236449
Cl         -1.50811222448062    0.79335517918407   -2.36552939495951
Cl         -1.77938033830274   -0.07662742066024    0.38282797816509
H          -0.08318835082947   -0.66335566222668   -1.14533876571979
Cl         -1.93478704151894   -2.01433382650772   -1.76397764689919
C           2.67540948503580   -1.78988027089049   -0.90607062715671
H           2.90445259998982   -1.51514650571903   -1.93528234221546
O           1.72414219053610   -0.86600678009936   -0.42644805233261
H           3.59206630808511   -1.75385245783402   -0.31222414916523
H           2.27655506951026   -2.80716763402479   -0.88675501509128
H           1.50745730150687   -1.09464233091735    0.51798855383458
C           1.26483355654600    2.55531059662957   -0.40493628194351
H           1.42817230315990    3.57774593722833   -0.06734777699228
O           2.28785276990878    1.76454894903669    0.15821322259833
H           1.30162099481545    2.53081603322032   -1.49670251060531
H           0.27731239448092    2.22213184274285   -0.07287434895696
H           2.17975969163853    0.84622520282171   -0.16671312582002
O           1.96977763335681    1.20371641363631    2.79822663141703
H           2.08806833508378    1.53807706676322    1.88370711906849
H           2.82188074105433    1.28979588774376    3.22824383136522
O           1.05771865459097   -1.23177144881200    2.11564656216135
H           0.10273033217422   -1.20628706893888    2.20730762210583
H           1.38518651123719   -0.38158039171726    2.48549157062371
