29
-53.099125719283
C          -0.70003994250918    1.69543182673030   -0.03389011628993
Cl         -2.16858200113248    2.57215163822932    0.40350141164246
Cl          0.30574941894459    1.46388718532141    1.39123052864118
H          -0.96078053603028    0.70368578441816   -0.44051368012656
Cl          0.22546412775328    2.58640955928654   -1.27486192310429
C          -2.68572520021220   -1.25923084932738   -1.65731215706428
H          -2.76189304047180   -2.28880479660626   -2.00997957065752
O          -1.43050283357809   -1.03305341102538   -1.04458892750452
H          -2.75455259757733   -0.58075492918928   -2.50597071599241
H          -3.49800709952105   -1.05202766957086   -0.95865633085345
H          -1.32990358584544   -1.67690699103956   -0.29810904857959
C          -0.89368002760906   -2.20747436455122    2.24410907670089
H          -1.92952195072148   -1.98181068909201    2.49037526642052
O          -0.88296717115377   -2.74958769513746    0.93469236782597
H          -0.30138557865376   -1.29234120134544    2.29486691059129
H          -0.50756001814393   -2.93258282599707    2.96333971152488
H           0.05739666672352   -2.91762241328219    0.69576318203842
O           2.71816957096206    0.27994879238463   -1.56198150681298
H           2.27512715432445    1.09918980371466   -1.80573407200045
H           2.17066667218366   -0.43957399771074   -1.94209032780395
O           1.73180405861712   -2.99279965951598    0.21761564977516
H           2.19083659023819   -2.17947484806235    0.54666992670219
H           2.38885754263198   -3.69622626896966    0.23890528185037
O           2.86343825740763   -0.71482120962207    0.91433974937618
H           2.35458085741424   -0.07372528556803    1.41807694528170
H           2.93299596428472   -0.30634812076482    0.01926160259657
O           1.02679200278953   -1.72706592038386   -2.17330718562746
H           1.29755382451449   -2.32093670658244   -1.45561969470565
H           0.12514838825153   -1.44690898178432   -1.95224668210220
