26
-48.012209344250
C           1.67052592037826    0.89616251327719   -0.13093735995007
Cl          3.27996917547768    1.50122059690964    0.29420983080456
Cl          1.79249904451770   -0.76349943031604   -0.73176237581165
H           1.03185643051017    0.90103081926451    0.76321627375472
Cl          0.94646074834517    1.92850262267081   -1.37449009224098
C          -2.12582449744559   -0.55035384391877   -1.88873930437872
H          -1.08240294877139   -0.39998507862144   -1.59653277771357
O          -2.91974001119360   -0.92275657638461   -0.78556293079970
H          -2.50099561700234    0.36465563792210   -2.35494888344380
H          -2.17812430479984   -1.36311619750847   -2.61190552754899
H          -2.89134238085978   -0.19587421434838   -0.12472337092458
C          -2.46714820439065    2.39325480661578    0.55088223162440
H          -3.41718618896410    2.61110226788836    0.06425299914712
O          -2.54488332246658    1.07531896013932    1.04109101068236
H          -1.65713168693787    2.50326075399285   -0.17677916346661
H          -2.31390631721795    3.10923728755714    1.36313026766664
H          -1.70072178281163    0.85842573557098    1.49273183367985
O           0.05881325323233   -2.18122118258423    1.92573008945773
H           0.79234793527079   -2.39002258459999    1.34330199804396
H          -0.74080290501301   -2.55163720016157    1.48551726225792
O          -2.07904766097953   -3.08221288325695    0.59979073930098
H          -2.84985823751604   -3.35671191227304    1.09850307552061
H          -2.37872970406008   -2.34625098464598    0.02250403586136
O          -0.17338069280796    0.42308386074829    2.22980222506439
H          -0.10956707171854   -0.56392795472446    2.13624343846012
H          -0.11582056639925    0.59982542819100    3.17029257818802
