35
-61.343005045692
C           1.77464817680261    0.06022798335329    0.17347966812540
Cl          2.77745268857702   -1.04409786664919    1.11714960739008
Cl          2.35817010682335    1.72245338103458    0.37348241066058
H           0.74056748517652    0.00179153491065    0.52950258492840
Cl          1.82774791187185   -0.38024283728521   -1.53148417196736
C           0.42726910953470   -3.53626277399896   -0.31347873206038
H           1.06786614213478   -3.42428758265993   -1.19299144059457
O          -0.16245342924517   -2.31034969271249    0.04576389801212
H           1.03752296933647   -3.85635903703288    0.52984300193408
H          -0.33020005684303   -4.29976992061904   -0.51617179659297
H          -0.71367450981253   -1.99500858922019   -0.69751185930997
C          -0.74143556476483    2.16934438533670   -1.98021201510850
H          -1.00933968089541    3.22148717932068   -2.11072552955230
O          -1.88225485117621    1.34476111993491   -2.07872765780340
H          -0.24176633768350    2.04304251273303   -1.01733158091559
H          -0.06025291750309    1.87577560960546   -2.77715184608754
H          -2.46130592138928    1.52961878221141   -1.31040112990875
C          -0.57835006093631    2.00133848968142    2.48828518650524
H          -0.40472990719088    2.97809787617636    2.02796023107088
O          -0.90496114979369    1.03234726768504    1.51925663789560
H          -1.36774466049755    2.09389188801856    3.23964023418375
H           0.33849344639497    1.67247541980212    2.97531159464472
H          -1.74057231981064    1.29551065022890    1.07989311784625
O          -1.83687253186682   -1.33779641300496   -1.92729056444604
H          -1.75424290434794   -0.36025702927553   -2.00922101187801
H          -1.95297194402745   -1.67237169761148   -2.81762314135851
O          -1.82597494989193   -1.54989940020559    2.09158724726140
H          -1.19639048718055   -2.03783427872562    1.53592608344646
H          -1.46297729548268   -0.65137027700944    2.13046261689306
O          -3.29646593815666    1.50268468548425    0.25184519170799
H          -3.51565417512080    0.51902167177316    0.24051819289881
H          -4.10214907989379    1.95272770449674    0.50779798643501
O          -3.66039965885420   -1.05889519424436    0.20686256095250
H          -3.11789647134049   -1.33643371955508    0.98284646437650
H          -3.14693010650242   -1.32608358915170   -0.57060732965988
