35
-61.341824253014
C           1.63543741090330   -0.00392729858265    0.04094863462002
Cl          2.73247373004535    1.25603468911341    0.62324413720237
Cl          2.31531304557147   -1.59706405884232    0.37850223279023
H           0.67915873539469    0.09204626342321    0.56296220039151
Cl          1.38102463101106    0.18201932188642   -1.68771851264747
C          -0.56016119581985   -3.10748962900272   -1.49479398280135
H          -0.14088611970709   -2.82153461813854   -2.45867972536114
O          -0.77248371078700   -1.92039696432224   -0.76860145090098
H          -1.49680966776954   -3.65053324883905   -1.65658081596736
H           0.14975672372968   -3.76119197778769   -0.98153753019210
H          -1.13799155083642   -2.13940440426479    0.11295262085526
C          -2.23058092450854    0.45611185230390   -2.90170037760907
H          -2.80244809654703    1.36643954569558   -3.07755407264642
O          -2.12533214658265    0.29143884162650   -1.50471039976691
H          -2.75589332681930   -0.38714136208065   -3.35767428823938
H          -1.24314194503983    0.55452236305401   -3.36070025719596
H          -1.59400620729955   -0.51786245820301   -1.32289182287598
C          -0.32885730444667    3.29423566309467   -0.79874150168951
H          -1.21539244003840    3.85486050120651   -1.11219547089207
O          -0.67983409825578    2.15091951143014   -0.05826671419207
H           0.25830519676522    3.02894273868780   -1.68253914208003
H           0.27691918356866    3.92287383477202   -0.14755978463342
H          -1.21161857357956    1.55461096474079   -0.62451428968509
O          -0.17747763521975   -0.29774150136052    2.63367103025899
H          -0.80235449447893    0.48510165116320    2.58270982598227
H           0.22175386579246   -0.26160136701980    3.50329045233297
O          -3.51136266169603   -0.03019547699382    0.97000235143269
H          -3.07963899799216   -0.86154072014774    1.21600015584157
H          -3.24889652110594    0.14562425262891    0.05688571182465
O          -1.88325461257933    1.64803605553705    2.35429925491127
H          -2.62987815249339    1.14432808365550    1.96763862260302
H          -1.46156120881535    2.08774818221558    1.59790531731201
O          -1.80926201181734   -2.17255348157420    1.73653157705073
H          -1.17281208888515   -1.51364738717694    2.11229268138656
H          -1.89107577142458   -2.87662904374933    2.38090484211304
