23
-40.994710370899
C           1.45641637550510   -0.19562316026264    0.77561708692513
Cl          2.60135839773787   -1.47249630402935    1.21111754164848
Cl          1.72040864236073    0.29949614698955   -0.90312031746339
H           0.42935450579152   -0.57423578103231    0.87335647948270
Cl          1.66119141341108    1.19618681565864    1.84953448794409
C          -1.36442302727122    2.65880747101519    0.03873993107187
H          -0.46768292852467    2.24125216342651   -0.42922206183775
O          -2.37040094596777    1.68314009638066    0.18972305871606
H          -1.08936755515947    3.10051391771841    1.00017819655845
H          -1.77301468858901    3.43716503808995   -0.60408361102649
H          -2.03824848280911    0.97988528063291    0.77218432984583
C          -1.81472303133533   -0.37433988582494   -2.68211373779549
H          -0.84669182854398    0.07141287228867   -2.43453579729245
O          -2.63942481716447   -0.48390805102468   -1.54347791164515
H          -2.29485003298780    0.22277801921906   -3.46190133464918
H          -1.65539259773124   -1.38388030074993   -3.05832777153628
H          -2.78671946409435    0.40872818225376   -1.17676479752137
C          -2.12493428687403   -1.87094834650859    1.72474892327572
H          -1.94000862304804   -2.89572004479907    1.39121874015260
O          -1.48155484280279   -0.93848291764516    0.88540633940463
H          -3.20277635887233   -1.69337518554480    1.75583787016620
H          -1.71142308231789   -1.74209762559588    2.72440420989523
H          -1.86785661724629   -1.00823318515797   -0.01559097830133
