29
-51.167170500893
C          -0.76038747130237   -1.52684586353062    0.14185660500437
Cl         -0.75919857724409   -2.41489927661271   -1.39285501341669
Cl          0.88712719066449   -1.41026140633128    0.76533684913365
H          -1.14909307576144   -0.51151825476408   -0.02776186690661
Cl         -1.79250045393525   -2.35829323229078    1.31886157078090
C           3.54034969001405    1.18770471974487   -0.16431239873637
H           4.28707936292596    1.02134104718346   -0.94471876667183
O           2.37600718722905    1.77528874872040   -0.69351030865805
H           3.31872934239769    0.23321900514912    0.32457098860607
H           3.94830613977518    1.87953035769303    0.57253385231235
H           2.01943896938742    1.17937711668400   -1.39226259808884
C           0.77916901361916    2.17861181297097    2.27207210000575
H          -0.05173882100465    2.41653484316482    2.93600226003165
O           0.41357386573410    2.59225678582473    0.97484069732973
H           1.66901459150795    2.71115730180386    2.61695694400867
H           0.97165725041770    1.10231632258295    2.30823165207316
H           1.15460686520604    2.37392664714242    0.36110919103190
C          -2.89420715137393    1.78979939964709    0.45671171526329
H          -2.93892083146030    1.54215638178525    1.52069636737096
O          -1.68048853852848    1.35315450548039   -0.11338033848574
H          -3.70046463493188    1.27325191329489   -0.06300812001272
H          -3.02056117060698    2.86849442354927    0.33551230517440
H          -0.93128562045798    1.84135333193320    0.31762831705049
O          -1.05504537365532    1.46527189164993   -2.78798013044980
H          -1.38538699763723    1.41892533480932   -1.87166123254530
H          -0.85551742777567    2.38758222152683   -2.95947335270027
O           1.29017079848966    0.12786775709295   -2.54197356662318
H           1.07837305461899   -0.79068840887836   -2.36296152181842
H           0.44121386923123    0.56694343388428   -2.75597609777182
