29
-51.167414327460
C          -1.14104939650576   -0.08717807825879   -0.82939152941896
Cl         -2.11472413463646   -1.22793993460449    0.09717858435484
Cl         -2.17934859574343    1.19411641023772   -1.47935463261727
H          -0.38745370908681    0.36689444351463   -0.17355216303654
Cl         -0.32500606588039   -0.92625070287774   -2.15122054156564
C           3.44122260594768   -0.04122013142272   -1.12835522921234
H           2.58940401298533   -0.19446824020353   -1.79724361004174
O           3.01957809300530    0.18505024502899    0.19809572899583
H           4.09948853095715   -0.91232178236979   -1.18753316599024
H           3.99594354912406    0.84072469055042   -1.44781089413485
H           2.45763291566216   -0.57463878206074    0.47169068665827
C           1.22550197046013   -3.03523159521029    0.57134406757866
H           0.23853358813892   -3.50499470072890    0.55018563028522
O           1.12031130188644   -1.64513944066240    0.76398693122701
H           1.82478055785190   -3.50244958922693    1.35876676995888
H           1.71189178392805   -3.19454465463816   -0.39102997127434
H           0.65210535360504   -1.48155096010755    1.61927829027487
C           1.00043949931907    2.99111592465899   -0.35151331256892
H           1.13373057298312    2.73283185858158   -1.40556972269205
O           0.91300156973072    1.83338959272052    0.44747231372292
H           1.82830512995368    3.63058573262736   -0.03260995222762
H           0.06330481962617    3.53412398109519   -0.23572512019286
H           1.75316752223570    1.31803828996578    0.36392901500242
O          -0.27414566104975   -1.09407539677516    2.98928515421335
H          -0.15918893217830   -0.12647253380091    3.10284151514301
H          -1.20653094038878   -1.22873612950559    2.80677905426469
O           0.11431286749154    1.57956902778958    3.05284314945932
H           0.88920937580435    1.83114677486964    3.55863561553977
H           0.32414741155469    1.76261359881058    2.11772334129580
