29
-51.168120536629
C           1.14055361201592   -0.12884907750796    0.85841830911501
Cl          0.66078771402861    0.90718179362032    2.20053519710551
Cl          2.18227099674530    0.76806448383133   -0.24959954899475
H           0.24461394418966   -0.46714648289992    0.32094610801031
Cl          2.00489065953521   -1.54786722538494    1.47846824451669
C          -0.62512973366856    3.11974458678341   -0.93436445442590
H          -0.45807875501195    3.68808721608858   -0.02003956096830
O          -0.94292049962472    1.80207968882521   -0.55325807865155
H           0.28575760076623    3.14607315672072   -1.53887866407305
H          -1.44236504895625    3.57999035449582   -1.49772290393500
H          -1.08786614156861    1.26445154603448   -1.36294929707154
C          -0.01871100591857   -0.00942554566443   -3.44589344061138
H          -0.03139870663982    0.84834700845404   -4.11740913595974
O          -1.17989126821448    0.06792534712273   -2.65029155426152
H           0.88794872528516    0.02686488679572   -2.83456835267693
H          -0.00936933632955   -0.92535080076100   -4.04332146068896
H          -1.17592046079747   -0.68646644226172   -2.02435348593472
C          -0.76202295110717   -3.09238806586794   -0.61701357557463
H           0.20158927083250   -3.20436904662893   -1.11372621070272
O          -1.06397745967881   -1.71584717029189   -0.59046745129668
H          -0.69037172806782   -3.49759559872016    0.39494455406708
H          -1.51981328950057   -3.65207824061282   -1.17256861017954
H          -1.92453529777145   -1.58786455498808   -0.11205351868653
O          -3.36030933116446   -1.21115375505421    0.64962689012149
H          -4.11025133388453   -1.07411676998412    0.06824208678519
H          -3.16047738568510   -0.32862630230571    1.04097081806831
O          -2.65111581882779    1.22346345605658    1.48599355991728
H          -2.08531029869147    1.51534782606889    0.74324854363963
H          -2.08088495446921    1.21218341111386    2.25795059281206
