35
-59.410391544813
C          -1.70354671326838    0.14476748971201    0.21905477457787
Cl         -2.83220479385681    0.53278024233770   -1.08493195940769
Cl         -1.69505593801149   -1.59260771324863    0.50927014016731
H          -0.69921454773377    0.47061856556124   -0.07691401931814
Cl         -2.17399737541082    0.99934239793974    1.69518106695468
C           1.64213798192168   -3.34837704770117    0.18588363650755
H           2.26423708135294   -3.73880849871045    0.99016066502025
O           1.70081704721270   -1.94485002421827    0.26081605886030
H           2.02699396988947   -3.71357534380829   -0.77188183619557
H           0.61824115551894   -3.70846806622835    0.32033851477611
H           1.13993153281527   -1.56817102948701   -0.44724629284380
C           1.57758417540543    0.47042511016450    2.71652342588794
H           2.27252919467237    0.15684230107527    3.49425129583422
O           2.26085329017389    1.40563597928993    1.90757475976522
H           1.26953684812010   -0.40363552807764    2.13554703015441
H           0.69930371091239    0.92077341502866    3.18546564739412
H           1.63239553265079    1.74400993421159    1.24167601693925
C          -0.07004101928143   -1.28094672946663   -3.00803343825264
H           0.70003678110389   -1.84725498514165   -3.54106143870079
O           0.44503196048968   -0.67968715867640   -1.84366382334031
H          -0.49704670939676   -0.53460960560813   -3.68339760361376
H          -0.85892199112540   -1.96192952124320   -2.69162740328729
H           1.16215635299395   -0.06384242111118   -2.08616872567499
C           0.07183876230167    3.30454283070954   -0.57530863866861
H          -0.63941628645154    3.53228744091659    0.21731772920729
O           0.65914443456640    2.06337365969650   -0.26009614372757
H          -0.46180690875227    3.25788117485863   -1.52858073898914
H           0.82218691150370    4.09887683816554   -0.62105137684919
H           1.30796372163543    1.82631665398430   -0.95515681588015
O           3.67651483542202   -0.03710378866429    0.05060912327662
H           3.16251107134316   -0.85634807258833    0.15940246887239
H           3.38771918744181    0.52803120252664    0.79377436332583
O           2.54604494191306    1.09836935627870   -1.99612728763759
H           3.04363357598823    0.65629538403789   -1.24271804604031
H           3.21084044631387    1.51823104046891   -2.54347476415312
