32
-54.322736931432
C          -0.36000783400605    0.25616749424898   -1.36621261406136
Cl         -1.73614374972110   -0.52406131046192   -2.16358929368805
Cl         -0.73239709405805    1.95081940003133   -1.04280419917131
H          -0.16199710261120   -0.26442210598695   -0.42143033494475
Cl          1.07023353615818    0.13506437079242   -2.39598545567549
C           2.71224832507836    1.85409557453484    0.48853181040638
H           3.14193127536194    1.46681746934367   -0.43934803102811
O           1.65527902791301    1.03960646217874    0.93778188377112
H           3.50245135291364    1.93479602160380    1.24157693935574
H           2.29695880304321    2.84334607222851    0.29976334667471
H           1.99924204813196    0.13520548080743    1.11566043225273
C          -1.04046959450211   -3.04472325489004    0.56936025727183
H          -1.20726093056634   -3.66520445098743    1.45431274186561
O          -0.37996151238400   -1.84607169510131    0.90586157134829
H          -0.40146834767467   -3.58292106354709   -0.13042561954332
H          -2.00042902558629   -2.84298954604913    0.08751001256378
H          -0.95529490433916   -1.33277631034141    1.52665173119772
C          -3.03784360246105    0.24208029959198    1.78582905730555
H          -2.73836681537371    0.77577497744267    0.87944562195639
O          -1.92169681958865   -0.29631992650498    2.45857259491844
H          -3.59154882095853    0.92644199336975    2.43317231192883
H          -3.68659069866447   -0.59039820389611    1.51420865986505
H          -1.31785686359870    0.44774612847762    2.69321959512877
C           2.96912391458739   -2.18026495670697    0.25865538470131
H           2.54543358604711   -1.86734992188094   -0.70027300053066
O           2.30338394463046   -1.56813076745276    1.34076456641603
H           2.92044596809070   -3.27023121839443    0.33160240738562
H           4.01270226905380   -1.87107178438893    0.30638367194612
H           1.35519294811705   -1.81028075409331    1.29372161979752
O          -0.10472670504855    1.63870739585666    2.92801027233113
H           0.42889963705373    1.46511224111653    3.70564454392106
H           0.49170222618769    1.53947084310326    2.15962135998953
