38
-62.567261023611
C           2.00332361867892    0.03399674017584   -0.05073754317446
Cl          2.92541642000562   -1.33741583054840    0.59011970100715
Cl          1.57631084923496    1.12187688999064    1.26784893807472
H           1.08289494558315   -0.34590784317447   -0.51387474007705
Cl          2.96162733906776    0.89868462048057   -1.25600953706224
C          -4.49054561654727   -0.83348989278542   -0.08075397807526
H          -3.74646680076697   -1.42940613076870    0.45386577085314
O          -3.88741641369317    0.23578161204240   -0.77670863257932
H          -5.23551622423618   -0.46700571199047    0.63189093607096
H          -4.98909213227560   -1.45544544313445   -0.82252476563388
H          -3.36024929715837    0.75071287729818   -0.14050365824505
C           0.02723900943135   -3.06482047287442   -1.39170352985704
H           0.52708541145390   -2.97834329132004   -2.35926856786435
O          -0.31302033049370   -1.79537418770455   -0.88499490302640
H           0.70952121618199   -3.52936898782243   -0.67951556846524
H          -0.85966242169549   -3.69488725235709   -1.50467197809081
H          -0.90609049249626   -1.33298948685246   -1.54720132313753
C          -1.94126952510060    1.99524383946389    2.20004723308763
H          -2.21397311666292    3.00553592975453    1.89685467592263
O          -1.99088753734028    1.18462812224001    1.04672276534912
H          -2.64930468133147    1.64639947870457    2.95613455390147
H          -0.93486836656898    2.00776228415707    2.62673487966211
H          -1.77232346946109    0.25394038167644    1.30029844739277
C          -0.16187340201115    2.95950515896228   -1.45900596512983
H          -1.08214353913441    3.53695144070143   -1.59231843569315
O          -0.43887936590606    1.60107139903654   -1.21832162173038
H           0.41901503142372    3.39671673452381   -0.64164938202996
H           0.42474883225920    3.00916675579012   -2.37529886672052
H          -0.95375393706674    1.52751150345253   -0.39001523457847
C          -0.57388979767878   -1.78697284950807    2.55453249645228
H          -0.39103076126095   -2.86433611667058    2.53942097192191
O          -1.45874395753792   -1.40941345112442    1.52321707072731
H           0.38156164592404   -1.26226251232646    2.47242780798799
H          -1.04772028580099   -1.52277783302724    3.49949254506801
H          -1.04761195190555   -1.64128389455901    0.65728314618860
O          -1.83043896533533   -0.39501154721816   -2.50452312537599
H          -1.32029933742109    0.41785059319746   -2.35830259576862
H          -2.67291573313351   -0.24893186181027   -2.03601108080699
