41
-67.653958636255
C           1.69736853513153    0.93318906958279    0.92503933606345
Cl          0.54999650261772    1.87989513066675    1.86810420661973
Cl          2.89814130025597    1.99572136088564    0.18580103479167
H           1.15625296198189    0.39267047839091    0.13835135934607
Cl          2.50350606815451   -0.24389449662042    1.97943796914787
C          -1.62260443301704   -3.93200445486398   -0.97932593901121
H          -2.63151736151739   -4.32892267493595   -0.87440518807068
O          -1.69165701074010   -2.54585683957810   -0.73402050431154
H          -1.26419467998680   -4.13414974704754   -1.99202555483665
H          -0.96542789722785   -4.42899869238007   -0.26005673898475
H          -0.78292703724308   -2.15933548170001   -0.81092331576831
C          -1.15979536297240   -1.30398772362658    2.32603396987075
H          -1.11289723919562   -0.50129117655795    3.05984865720792
O          -2.25875385546962   -1.03709078101034    1.48119985278535
H          -1.29233949282816   -2.25532078876422    2.84901092207121
H          -0.22457974769058   -1.33138723337284    1.76205360661051
H          -2.24478912266582   -1.69185001014508    0.75550548706985
C          -3.17690018957415    2.18233927432706    0.62968162991001
H          -4.13460299718881    1.76523249942130    0.94807651084932
O          -2.39049996348932    1.20566684183268   -0.01747386237374
H          -2.65517173394742    2.58936275846118    1.50028054656833
H          -3.35701040136035    2.98250444705539   -0.08749631234282
H          -2.27810157278817    0.44255422821081    0.59739992461945
C          -0.08512557825588    3.50242453406111   -1.38474869206192
H           0.83657730797423    3.77984332271993   -1.89450122769492
O          -0.09817478366630    2.09889891683982   -1.28827857162038
H          -0.93772429443369    3.87095661997174   -1.96414517705599
H          -0.09736513780111    3.96797785411608   -0.39504387164497
H          -0.90885791667696    1.82274968197983   -0.81445449736638
C           1.85828266519088   -2.07263829169759   -1.24270485940037
H           1.70396323748367   -2.78553685307458   -2.05747120380858
O           0.69084680239038   -1.32395634266069   -0.99160471680199
H           2.69400072820075   -1.41781529972071   -1.50072875688050
H           2.10361315595609   -2.61654813396390   -0.33013707036216
H           0.45043367015777   -0.81953120105723   -1.83277231843062
O          -2.65692268116933   -0.41315739964748   -2.31919197802190
H          -2.53709884078101   -1.25971179443482   -1.86513198013838
H          -2.73472902099209    0.24863363609827   -1.61641727795608
O          -0.09467806329953    0.02466791510628   -3.07360121505758
H          -1.06014439669186   -0.14044654861543   -3.01430564012836
H           0.02958705625196    0.90851001849124   -2.69099578804545
