44
-72.738979089725
C          -1.20423447551562    1.66538717100576    0.35276167951959
Cl         -2.49620916199628    2.28599801685719   -0.69365965213828
Cl         -0.21831866366237    3.00862215336729    0.93408363547858
H          -0.58268992559565    0.96497868867795   -0.22617665648166
Cl         -1.90602535122954    0.79759215369733    1.71927710173973
C          -3.52338328689567   -1.22093019892717   -1.68078199870023
H          -3.61056587428336   -0.47814038248650   -2.47281240051558
O          -2.31274842406687   -1.91132741626835   -1.88668633126679
H          -4.37841888756681   -1.90046004524224   -1.73517808738258
H          -3.53417809709730   -0.71180558746350   -0.71244520800929
H          -2.19629625153230   -2.55353750258102   -1.15202175698535
C           1.98515173076262    0.79277158371017    2.83818785751027
H           1.30825792341757    0.45247473809706    3.62114619101653
O           1.48787989625074    0.30164235129794    1.61812363960507
H           2.99066418067772    0.41111314414074    3.04250946578311
H           2.01117314832817    1.88596155019796    2.84356009515938
H           2.07799261501572    0.59908287586395    0.89245969445281
C           4.22427528827007   -2.20328048768851    0.18777168191590
H           5.09689577596540   -2.35728708383733   -0.45311363254659
O           3.04367350010219   -2.63458586076275   -0.45189043778193
H           4.16627957450495   -1.14656743798038    0.46207509798238
H           4.33774600760898   -2.80618022666226    1.08778698995525
H           2.88814105609018   -2.06524477147319   -1.23039934197611
C           2.88647083001961    2.32868733352265   -0.95577308689185
H           1.86112683408146    2.43343872251956   -1.32087453517086
O           3.12700584118350    1.02674788361208   -0.47040786331243
H           3.03993449001128    3.01657341607539   -0.12568396777919
H           3.58212269663189    2.58249704447330   -1.76028032106512
H           2.95516357735346    0.39687294260216   -1.19616989195692
C          -2.58306531540490   -3.10927763363713    1.52224488728212
H          -2.23335188546988   -3.69126218397435    2.37928457666836
O          -1.77712773109570   -3.33842635120139    0.38948650831852
H          -2.59773387878891   -2.04977397403715    1.79545735985539
H          -3.59351519249052   -3.42819836651050    1.26853313864934
H          -0.87178259102986   -3.03488766916581    0.59319188164390
O           2.31845931930030   -0.79474186208109   -2.39774201588210
H           2.25470367152103   -0.90880816323488   -3.34655261772206
H           1.38751995987696   -0.70757953760953   -2.05811831469509
O           0.67864127197091   -2.14615537806332    0.81246780663918
H           1.51849915693338   -2.49237856776386    0.45189361911647
H           0.91840649076558   -1.35672810991005    1.33233603763005
O          -0.03969707169189   -0.59786952045970   -1.27177380106415
H           0.16959492302071   -1.17693804179788   -0.50324096682357
H          -0.84427672374980   -0.99306868993614   -1.66617269099842
