41
-67.651216094337
C           2.17425237562147    0.12730106849129   -0.03028870966809
Cl          2.99948643008679    1.02290426050921    1.24879276269855
Cl          3.22814184302757   -1.15699757413608   -0.64355814748377
H           1.26087921346586   -0.33017672817041    0.37372155272063
Cl          1.74777743289567    1.21814614651440   -1.34773995453046
C          -0.08582052219710   -2.07411823411693   -2.38841785633305
H          -0.53471273982249   -2.23868666959798   -3.36773863005520
O          -1.04586369119943   -2.43359467650288   -1.41918000655335
H           0.81046903886376   -2.69162389427427   -2.30163432376161
H           0.19957163700114   -1.02249191847791   -2.29429442020693
H          -0.63207185699886   -2.33124340256095   -0.52917015061944
C           0.78825907998084   -2.99532810690095    1.63520841113270
H           1.49449985099850   -3.45860742370381    0.94612294632064
O           0.14512482576663   -1.94937392623957    0.94471427580377
H           0.06783493162417   -3.74628265169254    1.97092710303651
H           1.33381181403974   -2.61343650895526    2.50138218849354
H          -0.47667912673416   -1.48536449653448    1.58046136263639
C          -4.50171065225132    0.72903371760492    1.33135823215331
H          -4.63950404584758    0.94564526328778    2.38974336757663
O          -3.88042265589212   -0.53388197420389    1.24550699937979
H          -5.48017075195176    0.72069814180772    0.84183752095033
H          -3.88384916917893    1.50889675980192    0.87801045874781
H          -3.68689638261328   -0.71840039201063    0.30620497813788
C          -0.20566552335849    2.81173928894064    1.35857199519976
H           0.31979838263036    3.36255827771874    0.57301300667086
O          -0.52861840858885    1.50871255167355    0.93674791229168
H           0.45035582365389    2.71698665996921    2.22290971293293
H          -1.10057789968901    3.37130576178026    1.64789836556613
H          -1.13769530603115    1.57264922012450    0.17102660755857
C          -1.76541334818893    2.10456348030962   -2.39480218136121
H          -2.53742527982434    2.14846296319815   -3.16774340354530
O          -2.29719931161167    1.65578684750055   -1.16938574116384
H          -0.95015904089573    1.46019149337612   -2.73668822829650
H          -1.37567886959001    3.10769700904020   -2.22794621506721
H          -2.66874790135097    0.76249101743980   -1.30071464340250
O          -3.23456260654805   -0.93538675927006   -1.42884032376911
H          -2.42288056481528   -1.50262447182544   -1.42769028435170
H          -3.88650577491846   -1.39936613400642   -1.95639850056350
O          -1.42762655330137   -0.55721628941203    2.50321727773286
H          -2.34651895687924   -0.63872355228750    2.18845234469280
H          -1.10589932333736    0.28665444902196    2.14032180867715
