44
-70.807377711018
C          -1.86373147237790    0.70881909234814   -0.01058912904335
Cl         -2.84427629828026    1.78451680286231    0.99420950350172
Cl         -1.24884342358612    1.58709040419718   -1.40765900889618
H          -1.02404103910733    0.32298137157874    0.58389046136790
Cl         -2.84334220470969   -0.66151580077795   -0.55531881748304
C           0.06316445918596   -1.33359746481998   -3.18190254300657
H          -0.88860028634008   -1.14157346317612   -2.67995793682872
O           1.14597197437397   -1.26254809712419   -2.28262304596576
H           0.01964196578712   -2.31336082592713   -3.66580974893329
H           0.22339132586464   -0.57100215475140   -3.94332401440193
H           0.99601881750227   -1.91251816811925   -1.55886101538830
C           2.51724208128243    1.84701346706406   -2.09148989010052
H           3.19810668115428    1.35013874517330   -2.78611989202020
O           2.06928412932146    0.95422211815536   -1.09489971782680
H           3.04724064247139    2.65636277954608   -1.59025253408448
H           1.67383064166915    2.26154238344036   -2.65078660418510
H           1.65506542648985    0.17608262274375   -1.54121132054997
C          -1.10802681484483   -1.65441261480700    2.74249133713973
H          -1.44788007084721   -0.83978927676219    3.38661136539598
O          -0.23662982044114   -1.17660152847643    1.74379552324952
H          -0.62147411579954   -2.41464498960584    3.35999458294734
H          -1.97083799461683   -2.09615239082020    2.24314761626473
H           0.54548194883845   -0.74013138763451    2.19343380335895
C          -0.42830781060150   -3.84425036946055   -0.37880466123463
H          -1.37619479708044   -3.36757616878728   -0.64720056537094
O           0.58842562612391   -2.88917123375174   -0.17970097280275
H          -0.57735992668365   -4.45288211782853    0.51723335683065
H          -0.10936665499158   -4.49206081848222   -1.19480208600254
H           0.30635513458867   -2.28524072430045    0.54637686979283
C           3.83720862237306   -1.65691132580294    0.41884465879418
H           4.45631831839616   -1.70251325156071   -0.48115355981294
O           3.64383412717890   -0.32183776606685    0.83507011800941
H           2.88520284076687   -2.15742936685019    0.22422821417302
H           4.35452754778225   -2.16819189200527    1.22935625770200
H           3.18736490712378    0.16077350123463    0.12068272805325
C           0.75469882437996    3.42540468543312    1.07077505485842
H           0.24656309105422    3.80432538447122    0.17936431592086
O           0.74802292502230    2.01891659937293    1.10398659233473
H           1.77525354996695    3.82091032458468    1.09544664407203
H           0.22004871605258    3.76911582854740    1.95528484988078
H           1.19796456307853    1.68218856670163    0.30354829069288
O           1.78122359622652    0.11817165303732    2.80714214024444
H           2.55622368154449   -0.10703485596506    2.25894740866322
H           1.46905464049277    0.96953896570835    2.46046681345319
