47
-75.896457039003
C          -2.55910720239561   -0.35933572770408   -0.25402958354756
Cl         -3.62958172989893   -0.25239185526959    1.15721739614806
Cl         -1.94791870251576   -2.00168631894838   -0.40088956204311
H          -1.71894500800662    0.33591241162707   -0.11325326753375
Cl         -3.44450881706337    0.08657920384920   -1.71719907034462
C           1.45546849437042   -3.24919523517491   -0.72872532527463
H           2.11784066640989   -3.78268631820727   -0.04275799207549
O           1.55867938969642   -1.85287472243120   -0.54815216281964
H           0.42830075904688   -3.58720007060682   -0.57201707645664
H           1.75155970872490   -3.46735128622154   -1.75450449342452
H           1.35361885537043   -1.64095882214208    0.40204908261034
C           4.18325747843468    2.84767064746199   -0.06511857742405
H           3.76230523874761    3.83760498540608    0.10568271708063
O           3.10675235704482    1.93782824152478   -0.10935586740397
H           4.86949007200884    2.60510062300460    0.75065822546284
H           4.73432395517058    2.84986482249815   -1.00868744684842
H           3.46271610935925    1.03346241005393   -0.28650220918143
C          -1.74671904200172    3.03731435391527    0.90735552471711
H          -2.43671465867254    3.20983682643710    0.07696761958400
O          -0.83604511705416    2.00734992694619    0.60270212229853
H          -2.31402960375869    2.72186281818825    1.78270208784205
H          -1.22506001088020    3.97061969497535    1.13587993300477
H          -0.30192470629639    2.27939835325548   -0.19602332371412
C          -0.19441478749840   -0.66876538133154   -3.34144084503492
H          -0.78971404445228    0.05174125129383   -3.90052202640203
O           0.07071826954634   -0.09888957315543   -2.08207656270373
H           0.73103772588376   -0.87047120580461   -3.89036294656164
H          -0.76176093426117   -1.59847759667229   -3.24380903496531
H           0.58331336004449   -0.73944613563049   -1.54954863211544
C           0.05655378566738   -1.56453051962007    2.69497716505599
H          -0.80368628548849   -1.01057847016234    2.31050707974178
O           1.23738473667712   -1.21900333949488    2.00721426480558
H          -0.11015529467395   -2.63151324529188    2.54845285079411
H           0.15856254520690   -1.36367095553359    3.76443426538742
H           1.35659859599480   -0.23221103237561    2.08625731196037
C           4.54641489914529   -1.11421835913679    0.71087400269137
H           3.83323876392853   -1.07354690698568    1.53787740083769
O           3.98721996240834   -0.58441135818699   -0.47428153605225
H           4.86515713453857   -2.14937330589835    0.56141559018435
H           5.41995749903575   -0.51081868105169    0.95389203918068
H           3.16014574973091   -1.07631732806575   -0.65798155554026
O           0.72541905303387    2.49394498762543   -1.46838049856054
H           1.60940370810029    2.39364963004146   -1.07980484508468
H           0.52171886994378    1.63875745146632   -1.88401785562569
O           1.41790909288604    1.41603950454787    2.05333711095035
H           2.06496669768986    1.68557800254846    1.38116055764215
H           0.54957039570972    1.66643438903274    1.68730940356399
