47
-75.895233189596
C           2.25194802207179    0.18829332529440    0.10572901494698
Cl          3.17083116745947   -0.08629261643424    1.59174828456460
Cl          2.06087433082316    1.91408405072046   -0.15868932442926
H           1.26539412732948   -0.27541694219271    0.21059572343044
Cl          3.09254618034695   -0.53832790945325   -1.26709644626289
C          -0.04767359458258    1.43933573241670    2.87372109272264
H           0.60169959838356    0.76280590647507    3.43367712237982
O          -0.42227427543418    0.87367075254272    1.64073879119418
H           0.49944606993998    2.35733830190462    2.65898299283565
H          -0.92406633579115    1.67766664128601    3.48557600148155
H          -0.87694786235355    0.00239857777633    1.80948203044015
C          -4.41609554284499   -2.44741314896123   -0.32141628832807
H          -4.06448660249281   -3.47799044153086   -0.29771362817752
O          -3.27800572515404   -1.61678381307954   -0.26136458748009
H          -5.07546181825084   -2.27419488252264    0.53329913658736
H          -4.97559894298519   -2.28041519165442   -1.24505791583622
H          -3.57081211952321   -0.67513407411412   -0.29340359647928
C           1.45963144494501   -3.46203829260432    0.58475648051441
H           0.92248482242030   -4.41539770513475    0.57421572704220
O           0.57207615595015   -2.37442272557057    0.50956712392736
H           2.17243980775254   -3.44752890558256   -0.24421070242742
H           2.00531963350212   -3.37091470349183    1.52385804621530
H           0.06999069542582   -2.42584811615117   -0.34787726346609
C           0.33823419554084    0.96116855593313   -3.27503646060372
H           0.89767612808257    0.19849388882476   -3.81470661327387
O          -0.17384079500295    0.35302284115438   -2.11351200569255
H          -0.46595393067978    1.33542469873899   -3.91666825425292
H           1.01154503271955    1.78633945593165   -3.02666291479457
H          -0.66070376296105    1.02054057541464   -1.59360383228636
C          -1.22149803710186    3.52844712710290   -0.44869812025972
H          -1.68949512105243    3.94016306471211   -1.34229663618261
O          -1.49183333747308    2.14273874435722   -0.43481629525027
H          -1.64155778459756    4.01939072852463    0.43342651609023
H          -0.14612819721451    3.71615604387229   -0.48459755441055
H          -1.05872214569878    1.74027419353422    0.36038477240398
C          -4.24722757743024    1.27499301176821    1.23045108987553
H          -3.46772523193929    0.88083432558705    1.88868963934756
O          -3.96452886083264    0.99417028192137   -0.12430533051835
H          -4.35021300570647    2.35022828552488    1.39678906933859
H          -5.19370517471196    0.79165368386527    1.46927593749321
H          -3.13621937275649    1.45922983400486   -0.36249858332580
O          -0.93235064403896   -2.26212347290809   -1.67286208771700
H          -1.80656033633149   -2.11292090358389   -1.28062374573555
H          -0.63797105828963   -1.39112195907017   -1.98638917118885
O          -1.55810343050499   -1.49000436749546    1.94154650258807
H          -2.21896712119679   -1.60716607833771    1.23871516769039
H          -0.76686740573297   -1.96190019354962    1.62194527541629
