8
-21.360793999349
C           0.03610778329877    0.00136094263096    0.01994207699545
Cl          0.22473721162550   -1.44650291217611   -0.97814590391088
Cl          1.23309383875057   -0.00371407755691    1.32150021908396
H          -0.96789093241834    0.00451850312177    0.45656505342378
Cl          0.23502417033245    1.44897755657722   -0.97640867989958
O          -2.85734728313714    0.00090844645640    1.17942102491346
H          -3.40387193433120    0.77165901641413    1.34699959323762
H          -3.40418186040123   -0.77452185764699    1.32279198355017
