14
-31.528141102003
C          -0.68407144066250    0.06405194902044   -0.16927904604603
Cl         -0.19808194797030    1.33644218722739    0.95796557985052
Cl         -0.76287763023195   -1.48706663379778    0.68321108241746
H           0.06486714706721   -0.00792512162743   -0.96951123967009
Cl         -2.26685360844774    0.44805092849428   -0.86586915081190
O           3.11601125101017    1.26805020141788    0.01899408074520
H           2.52917717436066    1.77081567037102    0.58854340898572
H           3.22401274794148    0.39616537160926    0.43815771782040
O           1.79751788113859   -0.11961354061499   -1.88619570088480
H           2.30996208799368    0.51780491639909   -1.34145359407530
H           2.16282531789267   -0.07410378332086   -2.77075029107114
O           2.64713807583018   -1.40305568124380    0.54370048538417
H           2.34509609451376   -1.36998647515981   -0.37468940494923
H           1.90627668949233   -1.72674845826403    1.06098835918053
