17
-36.616388617191
C          -0.93515392154244    0.29521805574386   -0.11619035611683
Cl         -1.01046661834203   -1.43269353832539    0.25254302815367
Cl         -0.65887164073568    1.21295167246067    1.37029921298953
H          -0.10322954543519    0.48418948782218   -0.80584880906670
Cl         -2.45159609457960    0.82066079376419   -0.86901109402819
O           2.68660412289609    1.17453151435164    0.88701673560485
H           2.66703628150388    0.21530171826231    1.10818223669143
H           2.08084031219336    1.59858769898583    1.49878051006213
O           1.69926633769261    0.97240442087390   -1.55661334306845
H           2.11526395285382    1.12445094144286   -0.66871465905301
H           2.07308567682077    1.62855134509108   -2.14619763123734
O           2.28191158832256   -1.46010440807547    1.21697300895142
H           1.42040124019388   -1.69076303883270    1.57088486525831
H           2.25238785462247   -1.70178177644801    0.26794433038223
O           2.15115024492772   -1.72986761623591   -1.48357899686600
H           2.98692723038071   -1.91015404069084   -1.91685839888964
H           1.94788528371871   -0.78903358950746   -1.64540682131541
