20
-41.700567377589
C          -0.74179776633945   -0.09751694632720   -0.18832847229240
Cl         -1.24819860609785    1.25742601166432   -1.20450740954862
Cl         -1.74600648916886   -0.16439730026235    1.26838014165306
H           0.30205650178338    0.04223899082324    0.10188966233761
Cl         -0.89317669910271   -1.60967179510951   -1.09060573918149
O           1.88442575695650    2.38556662268815   -0.36760557908124
H           1.13010720714479    2.82339148399852   -0.76736112663102
H           2.03977111866803    1.57618380479953   -0.90223177557319
O           2.38089798263397   -2.08100710816935   -0.27293986136652
H           1.73131122020835   -2.74346570365487   -0.51979199508777
H           2.14863528701949   -1.79810367657400    0.63295732471145
O           2.14597517082117    0.11463457829859   -1.78241468050041
H           2.85453615416830    0.11337017613854   -2.42780366968742
H           2.28208467722737   -0.69138762057281   -1.23229363346229
O           1.40964250006695   -1.15256910169580    2.08585280905113
H           0.59531618142293   -1.41402658329705    2.53130266067726
H           1.44990676712858   -0.17477130274537    2.15575607061623
O           1.39478779663110    1.53720092364966    2.12340872607938
H           2.00101408712121    1.97749344282712    2.72174771140308
H           1.59493180260709    1.89203987397816    1.22673178244209
