10
-32.572031767833
C           2.37387937808036   -0.00001644372502    0.12037840893621
Cl          1.86759408408981   -0.00001582087668   -1.57412608249028
Cl          1.77194980171805    1.45043342684308    0.93922341908370
H           3.46432997585056   -0.00002375298550    0.16645622442841
Cl          1.77193014479206   -1.45045542121417    0.93922827160542
C          -1.49167055861632    0.00001040357218    0.19210838381490
Cl         -3.09479605603506    0.00002242197503    0.94105107097188
Cl         -1.28211664642758   -1.45023761584333   -0.79781552931802
H          -0.73757469015131    0.00000630542630    0.98188762769122
Cl         -1.28209668672984    1.45025278476294   -0.79781958830411
