25
-56.065812002903
C           2.17043631406270   -0.84270743157373    0.30967966700963
Cl          1.30777977282191   -0.87706582851289   -1.23186242483216
Cl          3.32254115652818   -2.18497971377192    0.39223188518680
H           2.71057217342732    0.10621551138812    0.40010358147019
Cl          1.01958167481044   -0.96042231977972    1.64746272807135
C          -2.09150488277217   -0.30842363998296   -0.02403961959671
Cl         -2.19851080607184    0.21249330517891    1.66228178080995
Cl         -3.60469696261767    0.07258271181470   -0.86031704770307
H          -1.27250190655076    0.24002457494118   -0.50434723985374
Cl         -1.77813139697660   -2.04434434515736   -0.10119705054310
C          -1.19778706262246    2.94811714457664   -1.61202316569630
H          -1.28840358379993    2.70357165387955   -2.67319438384505
O          -0.34148747174733    2.03984024133069   -0.95441302852364
H          -0.83806883518992    3.97566848045535   -1.50980498141542
H          -2.17743197115966    2.86595748878383   -1.14323041850573
H           0.55519729262844    2.10617770814106   -1.35533742082554
O           3.00079508619184    2.07738833693712    0.85983724258038
H           2.09297127452532    2.22781512035023    1.22420383587568
H           3.60102949844635    2.57420230054511    1.41771834415705
O           0.47903773443098    2.40547861878918    1.62818940427926
H           0.05483893766026    2.34972586031650    0.74901605957649
H           0.11647433371993    1.67754753600976    2.13954268826427
O           2.22634406727400    2.44627345748983   -1.73483549007678
H           2.62927802094816    2.29493804863149   -0.85868727994546
H           2.56062449144369    3.28713889244460   -2.05108426008071
