31
-64.306265078143
C          -3.22558160892739   -0.01867775406943    0.68878860774515
Cl         -3.05507998032230   -0.64452452718383   -0.95179115730415
Cl         -3.45685358270776   -1.36056797222723    1.82452871177825
H          -2.30938467926610    0.52473554482246    0.95820653270181
Cl         -4.60846135654845    1.08559599911164    0.77293062958921
C           2.98891393566492   -0.70504499052543   -0.46116488250478
Cl          2.72086675863579    0.77304928044078    0.46652547264587
Cl          3.45525853899994   -2.01921240734388    0.63308435621769
H           2.05880638829891   -0.97935560593862   -0.97772729208128
Cl          4.26269459047256   -0.42722751261320   -1.66416771789211
C           0.61920162538848    1.97588422441566   -2.38093152282122
H           1.65531717638045    1.77471262847924   -2.09350065121542
O          -0.28912901645525    1.25627686563964   -1.58025313553848
H           0.40832516204220    3.03468448835660   -2.23486349483698
H           0.49059444776013    1.73259164358960   -3.43886977215309
H          -0.12389836027678    0.29460602770950   -1.69635353070217
C          -0.29559604555417    2.73444962520798    1.58338351025120
H           0.75307980392574    3.00535921424242    1.43258603587924
O          -0.55890274281207    1.44005815091286    1.08946055179385
H          -0.51245643583691    2.72324425662931    2.65082777343274
H          -0.93298881333571    3.47705777780224    1.09695383350728
H          -0.39212662294491    1.43281174054443    0.11674629781707
O          -0.54514685592859   -2.57322257196120    0.46813497234972
H          -0.18406394916308   -2.03475809587357    1.20640863444629
H          -1.48991877424492   -2.63574379465098    0.62698719143771
O           0.29840192517003   -1.39213382396391   -1.73180391255222
H          -0.01734674523836   -1.90903920193043   -2.47454969167059
H          -0.04857369966816   -1.84450880499587   -0.91965158878996
O           0.38729055587575   -0.84595435645103    2.30014935746006
H           0.07481952528189    0.00899202542326    1.95079024287616
H           1.34369555054110   -0.78750409395246    2.35162336621978
