28
-59.222763079121
C           1.89839865682923    1.38841149680060   -0.32854844160518
Cl          2.88104620175015    2.83458807209101   -0.04621101300613
Cl          1.17322130594724    0.84621621924754    1.18964693344621
H           2.53292182211459    0.58832600693964   -0.72760125709146
Cl          0.62418190515345    1.74512464031639   -1.50369887922784
C          -2.22954228460295    0.06819629707344    0.15454362695439
Cl         -3.63394370406912   -0.72286684992281    0.88769857265096
Cl         -2.38747526221275    0.04485198545311   -1.60710029681645
H          -1.32497780400951   -0.48727331476425    0.42942739934652
Cl         -2.10768834602228    1.73502472970055    0.72510605927521
C          -0.83308998478729   -3.36836418413152    0.54922290536872
H          -0.34566364881047   -4.21777997977494    0.06546633865804
O          -0.12641742642972   -2.17050999737088    0.30363201593408
H          -0.91064208768749   -3.56284728042002    1.62190027613251
H          -1.83394000398031   -3.24546921856866    0.13710315818577
H           0.80271853670614   -2.29579758422872    0.60669828240951
C           3.25007108777322   -2.15743198697318    1.87940677832603
H           4.31564213110848   -2.36929185765450    1.75646989871553
O           2.51540084155234   -2.57850754774188    0.75356724249163
H           3.11652767918537   -1.08836363596395    2.06650258568140
H           2.87538858177813   -2.71853269708924    2.73456110804325
H           2.83265012992659   -2.08887120406087   -0.03534583011251
O           3.05296376924222   -1.17775199316764   -1.54154556447692
H           3.66829242667390   -1.53243549241000   -2.18542664640812
H           2.14793650812007   -1.34281783266243   -1.90623153644601
O           0.54078967651416   -1.59616204554790   -2.28660513809819
H           0.18671141356647   -1.87291242932898   -1.41772404824634
H           0.03227151914286   -0.82349738777526   -2.54572115527743
