28
-59.222592127103
C           2.14951136761408   -1.06238717071908   -0.33260467000238
Cl          1.66584951402484   -0.30215755290958    1.18290531309390
Cl          3.48865902210942   -2.18461867869581   -0.04130387682987
H           2.47360790487669   -0.27661987592856   -1.02358234250189
Cl          0.77017568297488   -1.92438435647367   -1.03502558251089
C          -2.09569484647252   -0.38144264023118    0.11714087709985
Cl         -2.63341285667764   -1.57181928915690   -1.07693737698047
Cl         -3.39155776170254    0.78235213590811    0.42871823648295
H          -1.22868508929292    0.15816807137868   -0.28232112709761
Cl         -1.64165536127419   -1.19179191730265    1.62026221649038
C          -0.52113571575602    2.69655027891300    2.04553002811102
H          -1.60639501679094    2.75342459022207    1.93333487187665
O           0.13542537974609    3.21280789706123    0.90898547442278
H          -0.23469642198228    1.65717450923575    2.23269897358740
H          -0.22041619056565    3.31013637315451    2.89364010687264
H          -0.12195071389173    2.67715842701227    0.13180932027440
C          -0.88663394564346    1.96725556132891   -2.43370443959398
H          -0.56479944996152    2.95547347981606   -2.77237155316898
O          -0.16836435599944    1.56276312548087   -1.28765083485197
H          -0.76205523969745    1.24824153626758   -3.24738306239046
H          -1.93900756823168    2.01161483993508   -2.15675825557441
H           0.79022368677159    1.54046760902698   -1.50792183873906
O           2.81327358347856    2.83609072946118    0.67125135902090
H           1.88573125657495    3.11458317599609    0.83007141028902
H           3.02236572933694    2.20327424666121    1.36205062404125
O           2.52243635757109    1.65252010959336   -1.67696297714538
H           2.93009367253409    2.19072645414328   -2.35770141408035
H           2.71198773177733    2.11011745884194   -0.81757293984909
