25
-54.133201513474
C           1.90829077897465    0.83974648114304   -0.00849820132353
Cl          3.41031860581484    0.13390117531383    0.60509812287792
Cl          1.81359176136097    0.60182624520154   -1.75969227366108
H           1.06323113977037    0.32548924542404    0.47887924067598
Cl          1.84430417852461    2.56661290931519    0.36805848032898
C          -2.35410282353183    0.02790481741304    0.09883736198264
Cl         -1.46161989291409    1.03390964709869   -1.05056930370871
Cl         -3.28617872787828   -1.19818258589212   -0.77400331571163
H          -1.62826937019004   -0.46610790929310    0.75860328428785
Cl         -3.43205458786587    1.04205646761725    1.06699444583485
C           0.08443332538299   -0.32664304416644    3.08709108775640
H           1.10271793529880   -0.11728933984796    3.42590537420489
O           0.07492241170381   -0.78465912191232    1.75083693283095
H          -0.37139232250381   -1.06026869723510    3.75512221652374
H          -0.49639972702257    0.59450776727168    3.11443538729684
H           0.61621433054637   -1.60813030165968    1.69598269832175
C           0.20558128606002   -2.63482587087473   -1.83524197011091
H           0.16753474558093   -2.76672739273658   -2.91854520413938
O           1.54460186207515   -2.65989256222379   -1.37230206745612
H          -0.28586788027938   -1.69804501834641   -1.56569645232074
H          -0.31007823088387   -3.46359410204194   -1.35487673263308
H           1.99650024659889   -1.88660705945023   -1.73847352377589
O           1.76598367058480   -2.83297449012578    1.35970951747277
H           2.68134052860425   -2.57402302891009    1.51149597640335
H           1.68079751216365   -2.94938808427084    0.39708481043437
