37
-74.484026728379
C          -0.80520290092595   -1.90804793746088   -0.08209634168176
Cl          0.39895759793277   -2.15703160848299   -1.34636353009003
Cl         -2.42536082185842   -2.02184624615944   -0.76402687590850
H          -0.68845783022053   -0.91417925213184    0.36000097118182
Cl         -0.60951461473928   -3.12240438615828    1.19304662858126
C           2.78251413668964    0.78952579104920    0.13533373067061
Cl          3.07762317025334    0.32552491522574   -1.54624421717287
Cl          2.38386516345788   -0.64850685963980    1.08547075862693
H           1.92833871947540    1.48452955907559    0.17456597649251
Cl          4.21846278314966    1.57487534631229    0.80780007668373
C          -0.46058798372013    0.82858812672513   -3.11915575766441
H          -1.06059388300532    0.26209646950092   -3.83622428580505
O          -1.05850913000250    0.81953473574151   -1.84230566788510
H          -0.32735647152696    1.84943050816452   -3.48855880047116
H           0.51481638027396    0.35569772205286   -3.02101477328198
H          -1.92299816841296    1.27611650873077   -1.90077070136083
C          -0.63325006816412   -0.02956513879798    3.29035769958387
H           0.32227399896839   -0.52839892754196    3.13837256559756
O          -1.10870062667580    0.35182294993079    2.01803035890665
H          -0.48439595265695    0.84163536057625    3.93405904141227
H          -1.32528503114009   -0.72267148413850    3.77511244093642
H          -1.96493938848253    0.81697982026726    2.12597901556602
O          -3.43425296862143    2.18667050461849   -1.77468822588949
H          -4.05877967834905    2.42492403103880   -2.46067584635167
H          -3.91187204938874    1.57012933429469   -1.16051406003791
O          -4.51034186699948    0.52553976195528   -0.03041124129166
H          -4.06137758011899   -0.32175941140479   -0.11079679868944
H          -4.19962701696772    0.92757228268482    0.80367334188861
O          -2.25153915313978    3.52250426116072    0.38169419620584
H          -2.64519776310253    3.25354708047326   -0.46349170218485
H          -1.32384954656388    3.20943221551919    0.35164427308613
O           0.06878338401230    2.09395904798675    0.26120936750884
H          -0.21858962378072    1.50495359334851    0.98210767848278
H          -0.23076717768252    1.64797464578854   -0.55692714601024
O          -3.37041794185748    1.87181499095099    2.05299318164244
H          -2.96507453217583    2.56668498621974    1.45131754989017
H          -3.83747648003529    2.34947110204799    2.73932572442262
