34
-67.462221461815
C          -3.21088085196826    0.26321091100646   -0.11664383231982
Cl         -4.60130557780813    0.79095516002062    0.84557729694753
Cl         -2.76776565472270   -1.38418008556285    0.32995854390925
H          -2.35709887898091    0.92566674524586    0.08120910782623
Cl         -3.60413728575633    0.33116514511196   -1.84418565074125
C           3.11758425872418   -0.40354856777368   -0.43940695811434
Cl          3.36318096130857   -0.27715229818651   -2.19087802836493
Cl          4.55853881862585   -1.09579705354959    0.32672132098675
H           2.25278087640353   -1.05291473392731   -0.24100569709312
Cl          2.79411715766812    1.19559793043383    0.23260636615673
C           0.44416733290268   -3.27615523024160    0.79668400570765
H           1.00765350362202   -3.43935459515404    1.71897422550883
O           0.61534952497714   -1.95684855205781    0.32642121122934
H          -0.61155844393617   -3.49241599264483    0.97749619735633
H           0.82210611216274   -3.94578060575133    0.02504555676847
H           0.25350867145577   -1.33269736526595    1.00151231677262
C          -0.40471279917592    3.25506540737292    0.59975368984483
H           0.66818264724646    3.44661784059390    0.69190245878851
O          -0.65011660748864    1.90256407133488    0.28537247206906
H          -0.82232401883487    3.91584887003835   -0.16311794572720
H          -0.88934820987330    3.46158042609598    1.55386414105842
H          -0.26172687116785    1.71329387584443   -0.60889602231925
C           0.58905160357305    0.25356461299610    3.15245543279678
H           1.56754023643720    0.58768121005274    2.79600732473381
O          -0.25186872175883   -0.11133111941774    2.08137637790931
H           0.13798733257596    1.04765940658788    3.75328765622834
H           0.71738131623840   -0.62977394026670    3.77699500448794
H          -0.37304528746902    0.66681306532793    1.49601269933064
O          -0.42315637607899   -1.29437741980119   -2.13958319465815
H          -1.37190381115876   -1.43892740343345   -2.11814459154398
H          -0.07450650595204   -1.61311675144500   -1.28631206850023
O           0.27457603051367    1.29805685284599   -2.12648147831127
H           1.21216723580342    1.32133964034070   -2.32959874678915
H          -0.00510096396061    0.36371672934076   -2.24526028255173
