40
-77.637662054192
C          -3.88548933478189    0.18803461542539    0.23239451964627
Cl         -5.35306560424641   -0.29697814256918    1.09848771409843
Cl         -4.10484728484195    1.79101988973002   -0.49179745626051
H          -3.04006367355416    0.22318264901402    0.93027806972761
Cl         -3.52793305273267   -0.98361421010595   -1.02832031056910
C           2.92813379665437    0.87745341082398   -0.31919756490164
Cl          3.46467544101072    0.92433485654403   -2.00416291455381
Cl          2.77353663447266    2.52135681676890    0.31172330922049
H           1.95187495985552    0.38168345705348   -0.27715076816841
Cl          4.08852545726324   -0.02626674615757    0.64275176759165
C           3.08695851612958   -2.76624178767303   -1.70610553577479
H           2.93876860848707   -3.85030267817704   -1.69883015365708
O           2.15733042685776   -2.11472925715298   -0.87079906010479
H           4.07874854459352   -2.53655121968433   -1.31905361951881
H           3.01553501997561   -2.40147504740916   -2.73345985120308
H           1.25619025721257   -2.29030196007327   -1.19751685188594
C           2.07372399408589    0.67714496880821    3.66440021502495
H           3.15449171365812    0.61637887878496    3.50735334133645
O           1.36876878477134    0.24796555012924    2.52572668467939
H           1.80544464518865    0.08684907148101    4.54659372923166
H           1.80007592495871    1.71716079304811    3.83651194660105
H           1.60740915536506   -0.68169387394614    2.33285505409033
C          -0.42864589065241    1.11436226645358   -2.10033955379269
H          -0.21821866377859    2.14020972185106   -1.80147281644515
O          -0.03590364091256    0.28268195393976   -1.03244787376003
H          -1.49689027084289    1.01365070259575   -2.30888638901160
H           0.13884527584326    0.88397168618607   -3.00588478671868
H          -0.23614744112742   -0.65351500998026   -1.26048132492412
O          -1.13090780145144    0.22988835664743    1.46177458913834
H          -0.38022232396948    0.41086337868096    2.05155793245426
H          -0.77649835212516    0.40910137862180    0.57004706031486
O          -0.84841524763943   -2.45350685788033    1.26231385326742
H           0.03848825938257   -2.58296658443223    1.62388310714764
H          -1.06252495405237   -1.51009610117931    1.43043148593275
O           1.93981683172608   -2.36045558523439    1.81371553931105
H           2.09685879753719   -2.26264941124391    0.84983341091864
H           2.72909864447988   -2.76308038583174    2.17938617560428
O          -0.54127791892929   -2.37298020317306   -1.33251677266958
H          -0.71306707435283   -2.48929610395549   -0.35421287959857
H          -1.36254079366767   -2.60074245599255   -1.77154561354628
