28
-57.289279647359
C          -2.32400288349117    0.53400799623679    0.19255721446791
Cl         -3.35326604266804    1.97206046079736    0.26855671694293
Cl         -3.29978639759989   -0.87008562499484   -0.26747949633090
H          -1.86918746419341    0.34050371866064    1.18013784822821
Cl         -1.03097317209442    0.77367686814204   -0.99167948216973
C           2.44795020869637    0.33530678861193   -0.55325055498079
Cl          2.02635887295711    0.02900538682792   -2.24415040040201
Cl          4.16493448482985   -0.00182817565520   -0.28933585224532
H           1.85242102577628   -0.32795932052037    0.08914003667509
Cl          2.09343102763823    2.01799467897423   -0.14178530924100
C           0.01121875940969    1.07124614448050    3.11572351862044
H           0.54921217574817    1.58713115421473    2.31450884537116
O          -0.69921116255504   -0.04262433210571    2.62478833189652
H          -0.72056202327870    1.75157053604869    3.54948190256335
H           0.72368035052049    0.77667422356678    3.89128225908960
H          -0.05880316966004   -0.66649821843568    2.22930059697395
C           1.85427120584980   -2.62011881712266    1.85320522585901
H           2.52410556194278   -2.04013717285547    2.48689958909715
O           0.99714402358235   -1.70509663848715    1.20293237084164
H           1.28545617409977   -3.31827835810456    2.47189880664209
H           2.44817634122351   -3.18339739456834    1.12940757460394
H           0.38348459803836   -2.21023498200232    0.62343246652406
C          -0.44422029810066   -2.90333624567692   -1.79003408476525
H          -1.15188247414810   -3.47066159037549   -2.39854060372488
O          -0.77205565702642   -2.99268549461328   -0.41641709653818
H          -0.42842208359684   -1.86416698713981   -2.12667051450006
H           0.54907604771538   -3.33270092946541   -1.90662712107351
H          -1.65108384159945   -2.61034451656068   -0.28547302590571
