34
-67.461887594699
C          -3.15942543095305    1.13089116782149    1.27260308290862
Cl         -4.30722777618401    0.20228103235971    2.25504373452932
Cl         -3.25145377946046    0.60057217323050   -0.40314447426487
H          -2.14158115509206    0.95567838191726    1.64439847305475
Cl         -3.53048053842068    2.86367708966540    1.37157438264207
C           3.19708462846903    0.31846468412761   -0.11641780809430
Cl          3.61989639593285    1.66176636676496   -1.18342427838732
Cl          4.48930149175857   -0.89591667953702   -0.12513937875968
H           2.26584232870713   -0.15204877577601   -0.46310019104271
Cl          2.96868878592734    0.90851062713396    1.52811429627157
C           1.64985130593818   -2.52495479703680   -2.11569930624349
H           2.33391644839846   -3.14120627795591   -1.53336255354682
O           1.04379454485165   -1.61582241296328   -1.22634047425722
H           0.90361705453752   -3.16646504446646   -2.59272615029086
H           2.21292645780766   -1.99760314573580   -2.88935564352759
H           0.43391485029726   -1.02839657444865   -1.74175731788738
C          -1.42149594781445   -2.72579712760042    0.84292956275815
H          -1.99429654219749   -2.77831455083036    1.76890336746082
O          -0.18324001454918   -2.12413271012944    1.15144041377550
H          -1.98094886091568   -2.13669507821738    0.11003803415070
H          -1.28070705338355   -3.73894300118036    0.45652691805162
H           0.33744170072193   -2.04601970133607    0.32308095019652
C           0.29275117423628    3.06706090552720   -0.22836994760889
H           0.57063758094707    3.49858917274401   -1.18834957162038
O           0.34008777339285    1.66717016271596   -0.37432039071460
H          -0.71247885924060    3.40540882645149    0.03918564158470
H           0.99981559390397    3.40749499390171    0.53226994207934
H           0.11139184215540    1.24999344167869    0.48483941802794
O          -0.28770870520198    0.42230740252508    1.97485102598128
H          -0.26521369040422   -0.53298543677948    1.73589813720858
H           0.43474831937836    0.55610347819120    2.59386611766202
O          -0.56392522663706    0.13755175760536   -2.41271837479191
H          -0.24619677219349    0.84085524339167   -1.81256497803358
H          -1.51067529549816    0.07003000834418   -2.26565503409875
