34
-67.461651745911
C           2.93536393305807   -0.19156013270623    0.01009373545439
Cl          3.18765750140897   -1.06821089932533    1.52235674252914
Cl          2.82184739070532   -1.32559047894037   -1.33245123362199
H           2.00293944137538    0.38348242544453    0.07859935175824
Cl          4.28008747337143    0.93019815262928   -0.26927130006867
C          -3.22277352595461   -0.47943124079624   -0.78553505750223
Cl         -3.39732582911593   -1.43435796352867    0.69178174881175
Cl         -2.91434103729225    1.20820253919327   -0.37104266886975
H          -2.37624432814021   -0.86097854989094   -1.36564632402696
Cl         -4.69605689492002   -0.60008091053553   -1.76464028362386
C           1.11645863913682    3.10742552821028    0.97512579758946
H           1.80508821705534    3.57357978121574    0.27140090268288
O           0.69228837250730    1.89140896836852    0.40160950551405
H           1.63693151536351    2.93554335529198    1.92101018854483
H           0.27023956769864    3.77767456418118    1.14884753709722
H           0.06404451194347    1.44516383140994    1.02201946536976
C           0.06924072652893   -2.93259809683540    0.69206762033622
H           0.79236772893944   -3.45551992320019    0.06058428910289
O           0.09711221456156   -1.54522038490753    0.45198473034102
H          -0.92773888426529   -3.34737293741541    0.51540416542875
H           0.33911640758333   -3.08490546835743    1.73648847230239
H          -0.11420067434703   -1.38435009980060   -0.49497495560245
C          -0.26200029205110    0.24142475281497    3.34420795203408
H          -0.40754818254895    1.16891506009590    3.89732329369903
O          -0.82378861905866    0.42330299705485    2.06415292538604
H           0.80780520153182    0.02091644035118    3.28213986213249
H          -0.76121767041602   -0.57078711093407    3.87965803606112
H          -0.64263683336751   -0.38439344243744    1.53656486877602
O          -0.49196984074886   -1.01201817809087   -2.14269822377273
H           0.14489082183647   -1.42343713363719   -2.73043016528716
H          -0.33825833661090   -0.03822638256564   -2.21799720712590
O          -0.16198914156327    1.62460432655054   -2.17304262516504
H          -1.02744444822445    2.04055405327749   -2.18350256229090
H           0.20754992511683    1.79567763319840   -1.28484063065550
