37
-70.617716719479
C          -3.37022055440756    0.23879585856486    0.04051864893249
Cl         -3.46823899414964    1.06966570484711    1.60214878820383
Cl         -4.91663399100147    0.37157222005427   -0.81265046835831
H          -2.57658917492542    0.70863671091012   -0.55571020693397
Cl         -2.96259949406897   -1.46253682278961    0.28914155810006
C           2.95578032857057    0.00873565042210    0.16035560864770
Cl          4.00852788097893   -1.24397691005557   -0.52228106343310
Cl          2.67481227283302    1.26190751444723   -1.04241380928320
H           1.99724039028893   -0.44982896055586    0.43131145806075
Cl          3.70165882705890    0.71112623917594    1.59873658097782
C          -0.62711861020943    2.61957653372866   -1.96937463790840
H          -1.19490322223996    2.50971042715124   -2.89288116597121
O          -0.87653823396464    1.47305372006275   -1.18503431284538
H           0.43577700691183    2.70876784900532   -2.20699875729775
H          -0.95793280675031    3.52515995743360   -1.45417678310141
H          -0.35532627588627    1.54163426226516   -0.34645579058051
C           0.85940276688252   -3.32681234961321    0.35318139106395
H           1.30426631066561   -3.57223630876126    1.31675527500398
O           0.55801227084684   -1.94978479812526    0.37072513609939
H           1.57475607655972   -3.56242547579755   -0.43904272898848
H          -0.04429027919971   -3.92580519104663    0.21099810677460
H           0.14974727803962   -1.70571867849288   -0.49282153452899
C           0.52095176943198   -1.17031103412833   -3.07808736347462
H           1.46190597353039   -0.67295332774445   -2.82713499773739
O          -0.40083014034524   -1.09731124594295   -2.01217214059233
H           0.10931045250071   -0.71927487595585   -3.98478779950465
H           0.71221140109805   -2.22609836658427   -3.26603122015889
H          -0.57838495257951   -0.15359060785517   -1.81683731774844
C           0.40162876085494    2.72658733724536    1.92178068581177
H           1.01029329579301    2.62269522750642    2.82286608923084
O           0.41210549614822    1.53748285977413    1.16607268882362
H          -0.61696531123684    3.00520475183644    2.20957187159517
H           0.82651799453232    3.51210626831696    1.29696587012672
H           0.06947933069355    0.80327048276682    1.73210263235028
O          -0.52619450353348   -0.59733250625531    2.48481893436228
H          -1.48043907298847   -0.69874709690811    2.44295152202422
H          -0.15409853951231   -1.22137261734914    1.83460133408376
