46
-83.944567644009
C          -3.42249370566726    0.96126283123142   -0.26893578251153
Cl         -3.58228108500593    2.12971616564733   -1.58604900125831
Cl         -2.85359644674142    1.77113647710211    1.18857557737796
H          -2.69835312322824    0.19090620296543   -0.56015874627654
Cl         -4.98748095611924    0.19438892805698    0.04348808989385
C           3.47716106310800    0.34766677957258    0.13600038663271
Cl          3.22082881450384    0.33831719851907   -1.60863190989734
Cl          4.89486641352297   -0.62555041471422    0.54002310046776
H           2.59272029819974   -0.07054330794882    0.63171902816460
Cl          3.70756409465565    2.01456093221260    0.68935340691406
C           2.81409603019585   -3.27052162752242   -1.01661853617396
H           2.24832314845723   -4.11119263416980   -1.43051652418577
O           1.96440803509404   -2.33331919965047   -0.39966296313352
H           3.40214921846645   -2.80760866923240   -1.81414122943159
H           3.49050831836294   -3.64232159085604   -0.24853882791498
H           1.36222893707670   -1.96235766917135   -1.07131746791132
C          -2.73281577740738   -2.04347300210217    2.22084428436644
H          -3.77958387109490   -2.07310625137875    1.91891285204144
O          -1.98793582297050   -2.74087618797821    1.24878477481125
H          -2.63244825679130   -2.51591416470899    3.20068061125854
H          -2.41152381518767   -1.00017407506530    2.29491614662591
H          -1.03173309845376   -2.71677007759924    1.52658073418086
C          -3.22990114849034   -2.55158254951945   -1.86944267581984
H          -2.89955661911496   -3.58877141251631   -1.97307127794332
O          -2.26321179163367   -1.77525531254029   -1.19680646163000
H          -4.18324375773032   -2.53405862790619   -1.33764636294776
H          -3.36969935677182   -2.11614046207577   -2.85897947480692
H          -2.15249292340384   -2.14715913638762   -0.27858927885164
C           0.63475508737431    1.30870299041693    2.69257736836917
H          -0.41855012900394    1.44568433498320    2.95273813715186
O           0.79354629217681    0.30750425173954    1.71360134222527
H           1.18236230254549    0.98345493921382    3.57609420801914
H           1.04481250307593    2.26270674157369    2.35037823720954
H           0.29758868813604    0.57168454246806    0.90787159450434
C           0.02337991202265    2.22679834116154   -1.19308454050901
H           1.10900853113932    2.32288180800490   -1.27485358967207
O          -0.34521242469987    0.96738132792246   -0.67369240239098
H          -0.42679786106195    2.39449167512825   -2.17471735646744
H          -0.35217033134939    2.97890071031666   -0.50076629780708
H          -0.02460998958861    0.26586724019366   -1.27379091189408
O           0.54289554174008   -2.43129267135661    1.95825867438460
H           0.61362075932623   -1.47053100596269    2.08263647669584
H           1.10417693531410   -2.61074192147916    1.18707492939907
O           0.14362020976165   -1.27236407826380   -2.21985561927437
H           0.11244299655784   -1.29449216816878   -3.17770108530708
H          -0.74719228300358   -1.54041565855722   -1.89174814463853
