40
-73.772518781828
C           3.01270295347727   -0.36478508389977    0.23063342064624
Cl          3.35325853885830    0.41441802059171    1.77971199556497
Cl          2.76926645950949    0.85645583079009   -1.01517231625861
H           2.10195980261377   -0.97001407980560    0.32119710233007
Cl          4.35933690276799   -1.42672331377844   -0.22331005208852
C          -3.21742747082285    0.36950625600133   -0.08307375202002
Cl         -4.65563231249026    0.59214831187528   -1.09577123001915
Cl         -3.40290225501792    1.25944597968246    1.43103694925798
H          -2.34258407650638    0.75514853704526   -0.61932472489551
Cl         -2.97857325118436   -1.34271119463921    0.24705473675762
C          -0.37920645915921    2.48484846511546   -2.40273832246707
H          -0.70384824725439    3.46606898712147   -2.04711069615329
O          -0.65676718124854    1.48367603054497   -1.44892216761816
H           0.68914546263083    2.52215028370653   -2.63280917848868
H          -0.93422968196304    2.23510163316916   -3.30653543584933
H          -0.15918037316295    1.69265042191289   -0.61885611754210
C          -0.07384768770529   -0.61773259460911    3.39180120966177
H          -0.56166794147957   -1.54522717538030    3.70327725846053
O          -0.49163995952766   -0.23295044420558    2.10261073386015
H           1.01158530257051   -0.75040996504085    3.43635393547754
H          -0.36456907471256    0.17911035639475    4.07539522038953
H          -0.24914529645425   -0.94151186160180    1.46968081863243
C           0.05411581168110    3.15312031988862    1.56499391506447
H          -1.03737676742900    3.17822007407772    1.63195624766583
O           0.50121310481948    1.98258301518064    0.91910233927450
H           0.47468574830989    3.22990282690372    2.57117954721665
H           0.39913295505955    4.00146647383199    0.97436670015048
H           0.17174619264852    1.20578357252617    1.42681754542005
C           0.15797010444865   -3.42261862621918    0.46959226155755
H          -0.91825517815374   -3.61082468767085    0.44231151984949
O           0.43551824615132   -2.05250372782108    0.27659330922162
H           0.64919495055674   -4.03264821329526   -0.29243355996912
H           0.54774952152653   -3.69766497088364    1.44927474336670
H           0.09020060076262   -1.78484923670403   -0.61014867308543
C           0.53801963004178   -1.31671277534096   -3.19368609743495
H           0.14569352031685   -0.87012077595593   -4.11105055566570
O          -0.36641354229526   -1.15210496330938   -2.12366167016482
H           1.51056235345549   -0.87121312370066   -2.96613952646618
H           0.66151168318590   -2.38776771465917   -3.34930886231269
H          -0.48005457787419   -0.19262857825742   -1.95487553857092
