46
-83.945662587949
C           2.52505004494798    0.19688314177740   -0.31848171801555
Cl          3.09319976246066    1.86468215758039   -0.25165988437034
Cl          3.07466429643974   -0.55764646587791   -1.81901432335757
H           1.43086257298880    0.20692608915815   -0.29957342484017
Cl          3.13312480421928   -0.69954583835507    1.07628965933433
C          -0.79334040116075   -2.35711480701579    0.62942043063671
Cl         -1.83864361127665   -3.78063786242228    0.54528574990181
Cl          0.04748032978854   -2.31615944982115    2.18054794344263
H          -1.40775424245634   -1.45313201863903    0.53335951281701
Cl          0.38928583098646   -2.40129062180240   -0.68110923459167
C           0.77750651957660    1.34596191835535    2.84119292634603
H           0.15716467346574    1.98986964671566    3.47167413500560
O           0.22752568100181    1.21115867233831    1.54904993077647
H           0.88646287280795    0.37135430468482    3.32174258391602
H           1.76243336002772    1.79756527858259    2.72854256611644
H          -0.66430211299996    0.79923120363185    1.63056982042904
C          -3.16197277735417    4.67364945309725   -0.73864096661148
H          -3.16546744362551    4.79387876610201    0.34893194863979
O          -2.57293759684105    3.45195231646222   -1.11830933750823
H          -2.64043875842978    5.52252842639940   -1.18977627598750
H          -4.19002424537658    4.65747491387839   -1.09727974214085
H          -1.65231078526988    3.44092993313200   -0.80345859424306
C          -2.48685721178088   -1.42532862871761   -2.70013629263322
H          -2.69035189389527   -0.80040422971511   -3.57582371233632
O          -2.27507503922278   -0.64304940348481   -1.54958607482471
H          -1.62444883944794   -2.06369370826882   -2.91033373710608
H          -3.35364310540570   -2.05534340515069   -2.50441447652291
H          -1.47479926587382   -0.09330805453356   -1.68298620131624
C          -2.92200361112017   -0.12269129097090    2.89366199108892
H          -3.28376121877623    0.79653001531257    3.36452787691794
O          -2.23862289631853    0.15363301187941    1.69410537625743
H          -3.77093027938668   -0.78724480400054    2.71633262425888
H          -2.21908726194802   -0.61627067949299    3.56486386349214
H          -2.87710082402680    0.56985320341123    1.04916843308493
C           0.24814536077430    1.30834077866038   -3.20585203558860
H           0.33566261174696    0.37556887013739   -3.76102588494449
O          -0.06967415503612    0.97241867986611   -1.87352316188837
H          -0.53571372870455    1.92495875805632   -3.65510077942811
H           1.20059693780872    1.84172346532485   -3.26101817463054
H          -0.12790792800207    1.79905647397040   -1.35050149942458
O           0.05818384733541    3.17995519611955   -0.23165436260774
H           0.11354989729639    2.54680035605091    0.52075004654416
H           0.94484852721914    3.53093327362814   -0.34642375809473
O          -3.81287399385070    1.15582179796089   -0.16493377196635
H          -3.46074602800193    1.99587747310101   -0.50834913551665
H          -3.51241025367257    0.47617970191107   -0.79092192250866
