46
-83.946630210868
C          -2.31220129260171   -1.19946865825081   -0.58879143837499
Cl         -3.88492396755567   -1.45337953434716   -1.36013773041228
Cl         -2.22119505053048   -2.12541959514252    0.90971569621360
H          -2.19636132589465   -0.13373754589450   -0.36231477243406
Cl         -1.01992869474438   -1.69695700706295   -1.68396808555002
C           2.08553604237099   -1.27836666099958    0.00038081210282
Cl          1.22864407892764   -2.56842471085815    0.84385897584395
Cl          3.42608061104255   -0.69757264544170    0.99248868599754
H           1.40346107029080   -0.44201737235507   -0.19129458966463
Cl          2.70475610503763   -1.88424898896765   -1.54008241030522
C           0.29559291332072    0.04139248370423    2.93554693483198
H          -0.09224720620804    0.68282823733714    3.73280843015524
O           0.06196690657701    0.60764535138009    1.66393046808809
H          -0.16288024622544   -0.94690019352041    3.01652954500315
H           1.37367213587846   -0.05557592307496    3.05180931518953
H          -0.90635583187575    0.68946204200965    1.54318528160979
C          -3.46137844261686    1.07001437595408    2.56399642310488
H          -3.05981338249980    1.64296528473613    3.40505829789631
O          -2.63359180732796    1.17535273811827    1.42808800129610
H          -4.47546328692109    1.41644021780488    2.34757355098019
H          -3.49789823709410    0.01557579389734    2.83370778953996
H          -2.56298529868553    2.11332107733589    1.16806246047312
C          -2.46723548679044    1.93365458672932   -2.55903774875803
H          -3.52214786518600    2.01261531411370   -2.28463941253236
O          -1.65992610637101    1.73059865284183   -1.42148096874738
H          -2.16996254880656    2.83556298520461   -3.10253823093221
H          -2.33549807267995    1.06739662758552   -3.20598082727075
H          -1.77214959632144    2.48777868864487   -0.80874861746927
C           3.52749991291816    3.06058039581216   -0.24545924390132
H           4.13061761026264    2.86425080943644   -1.13642390478618
O           2.19074207031795    3.34510631542905   -0.58935316747896
H           3.92276569149113    3.93951991976507    0.26223972618283
H           3.59239470373449    2.19848030084882    0.42435350340820
H           1.80989326203936    2.54964158930635   -1.02017385741335
C           1.25006386095963    0.91149326884611   -3.02693290478869
H           0.70802142738045    0.03727881118525   -3.39486074080160
O           0.99573660202649    1.12488552696467   -1.65555098376927
H           0.97000989785819    1.78568746560098   -3.62218143072208
H           2.31916178387078    0.73438273252784   -3.13394492829849
H           0.03454860472969    1.28389359745277   -1.54209655102682
O           0.43627736101416    3.32925730343680    1.49008621425535
H           1.10304521248498    3.49120240585484    0.79363461840309
H           0.44400963191951    2.36277248357995    1.62489934456001
O          -1.92427848070502    3.66890561387565    0.48030264037526
H          -2.12146498009305    4.60522492871200    0.43460023925710
H          -1.00808866215851    3.59593383934246    0.88924062865045
