49
-87.102077473290
C           3.39647797875747    0.71187046694140   -0.00070021740079
Cl          3.74715887550439    2.23276415829503   -0.84553201035348
Cl          3.66435034605951   -0.64056097519328   -1.09495770116728
H           2.34203729489420    0.71879262065712    0.31080118134129
Cl          4.43517158331901    0.55286442777995    1.41935342888140
C          -3.57454163194492    1.04821563022333    0.26531303356344
Cl         -5.14686343579596    0.32337608375821   -0.11303072742558
Cl         -2.80931941463963    1.61755185588071   -1.21794817093952
H          -2.94279949299633    0.28254829991341    0.73855607745665
Cl         -3.79158068567886    2.39745840335436    1.39335733119280
C           0.44867266489418    0.60048621586599   -2.82801944095573
H           1.51183865278037    0.80583024518171   -2.67727380910163
O          -0.09853905762205   -0.10455886752635   -1.73591829233680
H           0.32669910627845   -0.02466541993498   -3.71202497336544
H          -0.07990508337310    1.54362329410228   -2.98627284681699
H           0.00399098795258    0.44914579725163   -0.92991738140836
C           1.32807830950384   -3.26977309012359   -2.07757564021962
H           1.52841478195492   -4.27688877463622   -1.71369110732689
O           0.66027350987487   -2.57670793062915   -1.04418968388382
H           0.70654512047665   -3.33109831992626   -2.97461602780214
H           2.27340483928677   -2.78271401552666   -2.32753162335067
H           0.44964804772069   -1.66120052812848   -1.35662152909870
C           2.77566422380949   -2.74566202046320    1.83399050747192
H           2.32438159273061   -3.72102601318940    2.04207693594874
O           1.81749845853160   -1.82564290933698    1.36872223854145
H           3.58588978843050   -2.87434703820404    1.11072095042009
H           3.18706993663310   -2.33994655295960    2.75714437601181
H           1.44643034090248   -2.15446672320197    0.52703547689566
C          -2.61975063461492   -2.42001366596899   -1.54445286916852
H          -2.18811003884936   -1.44291294850558   -1.77342079409473
O          -1.99361365323757   -3.00308636622811   -0.41763379382898
H          -2.52816350704377   -3.07055946109986   -2.41853966140755
H          -3.67514953342275   -2.30291044040188   -1.30341776210098
H          -1.03101822340736   -3.02436922268282   -0.58852540192358
C           0.19777228132568    2.69961682648350    0.70374002412113
H          -0.85633361305913    2.87485323299801    0.93157939962796
O           0.45320152292449    1.32888711840113    0.49644215859957
H           0.80850797794104    3.09098140558124    1.52114071007750
H           0.45706748366105    3.22314695623918   -0.21631467253690
H           0.23615722238697    0.82914509073216    1.33599990689837
C          -3.29465474590018   -1.88092976070674    2.58111754776624
H          -4.25515582971292   -2.04939896327497    2.08754017826064
O          -2.34727305922166   -1.35134167715286    1.68003893055942
H          -2.94403028773745   -2.82241552497503    3.01133573412968
H          -3.42597736282587   -1.14975922448652    3.37789276704133
H          -2.21485480230055   -1.99954373730204    0.94688600017665
O          -0.01761491329364   -0.17411116125694    2.59022346950542
H           0.67528026588706   -0.81843704020844    2.37020915759631
H          -0.86235020229764   -0.60961342641311    2.38489117773632
