19
-47.821464619076
C          -2.00833062803278   -0.26873434141152    0.04711068511987
Cl         -3.58915566414703   -0.24089094826255    0.84379147131362
Cl         -1.44379443083106   -1.93359725609375   -0.12349177096493
H          -1.29746987372479    0.30736631207762    0.65255680898839
Cl         -2.13404597786576    0.48844177572798   -1.54654211220444
C           2.27234584627701   -0.05122585160138    0.08578371921099
Cl          3.80696435235372   -0.86174053249967   -0.26344921766779
Cl          1.23842706768804   -0.07506295944644   -1.34847476689279
H           2.46196875992260    0.99198823687643    0.36198169528667
Cl          1.45353401981012   -0.85865045697727    1.42958417186604
O          -0.52485603694055    1.91197669286444    1.62762115501443
H           0.41034810437849    2.15832697355213    1.52757460146869
H          -0.72182538499956    1.94802457946838    2.56484780023154
O           1.93753130039553    2.90409599930064    0.73386829481436
H           2.36480510522784    3.73560988650199    0.94596179197683
H           1.32210488688512    3.09135327227020   -0.00930892819812
O          -0.14225531400997    3.15027805406588   -0.95182641202178
H          -0.73499296492590    2.88601980909313   -0.23635728975215
H          -0.23225195809417    2.47763135095565   -1.63213517288470
