25
-57.996312705395
C           1.64404526276908   -1.36831390449349   -0.42257674663873
Cl          0.34039866851214   -1.35129495010560   -1.62273522760637
Cl          0.98355234869421   -1.03547543661107    1.17765916240539
H           2.37084958661282   -0.58802710906483   -0.68446389835021
Cl          2.44556870590321   -2.94948388348910   -0.42570699235930
C          -2.40517618508582    0.30960949571901    0.21553965717905
Cl         -2.39069441131019   -1.42229915841444    0.55803017518765
Cl         -2.45287258398975    0.58004089636180   -1.53309020324245
H          -1.49586138695001    0.77718442201233    0.61644519328474
Cl         -3.81774431901814    1.06429195646128    0.97308431892133
O          -0.11313223941477    2.24915264927279    0.79129928042131
H          -0.50203285874117    3.11900897249217    0.89871218666658
H           0.23819107470518    2.21890247087909   -0.13353653739352
O           3.27607360078596    1.01321574008412   -1.38877829560689
H           3.97349670810839    1.05900119042019   -2.04439525761547
H           3.61628082513844    1.48770528565540   -0.58844325211436
O           0.78866069187894    2.07190282069952   -1.69589521072955
H           0.25310887429397    1.41286086110555   -2.14469578244947
H           1.69665283680516    1.71132628358520   -1.65397033543050
O           2.04383369230678    1.89554061828556    2.40284157503853
H           2.00150415905331    0.99520321339625    2.73067361748391
H           1.23940661104471    2.01857520047575    1.85667384598101
O           4.09120439401861    2.32944106824433    0.75241850780924
H           3.39192783884078    2.15463470930385    1.42605030407669
H           4.16135929782131    3.28347297877942    0.69092425152355
