28
-63.086964394932
C          -1.74550444739216    1.35957213065771   -0.11186796951038
Cl         -3.42607341716320    0.84773760314109    0.08363927753843
Cl         -1.68395270667242    2.90828855023343   -0.96903153252343
H          -1.21522590306375    0.59639314958012   -0.69475455407022
Cl         -0.98288683288777    1.51601154934640    1.47612504787693
C           2.65509046437345    0.05944961602734    0.04826040212015
Cl          2.19691707212578   -0.01428315487842    1.75397342493388
Cl          1.72373309303070    1.32346352294856   -0.76766539415674
H           2.43992901030222   -0.90832740552351   -0.42415270352703
Cl          4.38859625354672    0.40204771878025   -0.08716296314015
O          -0.56610735883027   -1.18209968146020   -1.24463843752333
H           0.31751783263422   -1.50243161242780   -1.49520662359177
H          -1.17866414402575   -1.89580134555815   -1.49016361883021
O          -2.16372643827268   -3.43738587824067   -1.33341911343868
H          -2.62589825597222   -3.14990923534454   -0.50708029567754
H          -2.80566737358291   -3.92351091050919   -1.85131377294326
O          -3.17740428149673   -2.45463401162760    0.91991430239330
H          -3.59024589423618   -1.59411234894692    0.80542240860912
H          -2.30642138820674   -2.28310966748428    1.32452325586767
O           0.22478983535510   -4.11681898217393   -0.02813506145839
H           0.03704144049233   -3.55682182935675    0.74068314163190
H          -0.59072719405136   -4.09220818890857   -0.55514517003288
O           1.81737094274270   -2.51244582962260   -1.40110819909833
H           1.33280376269619   -3.19243486986317   -0.86293374584273
H           2.30929248420915   -2.99531802459669   -2.06593148783753
O          -0.56265345044307   -1.83941010836681    1.38018283492744
H          -0.51806413258084   -1.49068306709088    0.46075826415780
H          -0.09321811641551   -1.21160207431660    1.93332112040176
