15
-48.863839829091
C          -1.10979865353434   -2.36177500434413    0.05780362074317
Cl         -2.74253595251497   -1.67911016309661    0.11489400309096
Cl         -0.25454966791142   -1.76671735346766   -1.37372836658680
H          -1.18040963925829   -3.44882698097104   -0.00910848695713
Cl         -0.21656622617993   -1.93502829129128    1.52223686309390
C           2.92037054539547    0.08397624519448    0.01884657376293
Cl          2.96402162150538   -1.68161286520766    0.06676933903792
Cl          2.21966434991272    0.63461556890958   -1.51170696666742
H           3.94122300667423    0.46313320381669    0.09059182592710
Cl          1.98152669479383    0.71121813058342    1.38216609676427
C          -0.99917780447939    1.55816252595306   -0.13489958962853
Cl         -2.44269946090051    1.61645976461412   -1.15494740908144
Cl         -0.07079558193844    3.05268221696255   -0.30658711590541
H          -0.37655497850582    0.72195784962389   -0.46020034423448
Cl         -1.45391394714236    1.31717617563002    1.55597569323109
