15
-48.863773633813
C           2.96071915652603   -0.37656011651868   -0.08475999232663
Cl          1.92704650018891   -0.21439243795902   -1.51099902102336
Cl          3.59340611045065    1.20557684523821    0.38616893197621
H           3.79679536733635   -1.03160346597665   -0.33575873598911
Cl          2.05225195750382   -1.09539932368840    1.25245596651839
C          -1.14155170301412   -1.44041853714634   -0.07188456054708
Cl         -1.38048839323750   -1.26486000461540    1.67058980544642
Cl         -0.39768127105727   -3.00389112864140   -0.43013482462826
H          -0.47040190146050   -0.65278901266921   -0.42076566329470
Cl         -2.68510546666075   -1.29064101844039   -0.92045995656166
C          -1.07828993929548    2.39169720059009   -0.05030946372042
Cl          0.26132022924723    1.77272330706759    0.91851524932903
Cl         -0.95631173308216    1.78668323153823   -1.71273738687051
H          -1.02205631558453    3.48142089879277   -0.07009478444009
Cl         -2.62273082100961    1.90499922907748    0.66437035160760
