15
-48.863746309096
C          -1.69271871127174   -1.83918976927322    0.02365976400329
Cl         -0.90094094904058   -1.13000317342999   -1.38933612451986
Cl         -1.13430725989885   -1.04841626214848    1.50275673458352
H          -1.43031101813223   -2.89724978643016    0.07599246983621
Cl         -3.44898712854068   -1.68189074045095   -0.12036765479555
C          -0.84319204072177    2.58226317162205   -0.04378459167652
Cl          0.14110723769102    2.15679145212108   -1.45485014645545
Cl         -2.38685660394930    1.72819462460143   -0.09269872439554
H          -1.03420385259340    3.65665171435078   -0.05851809560907
Cl          0.03178860033826    2.18540411484308    1.44694826246177
C           2.11855127632169   -0.54005472251130    0.07763807449373
Cl          1.87827588165714   -2.25808971219810    0.40696715674053
Cl          3.40942829251919    0.10074074078892    1.10124602908170
H           1.19334122819143   -0.00818829228768    0.30933782441996
Cl          2.50958055447466   -0.30157705544328   -1.62923744106358
