15
-48.863676744729
C           0.19571594773556    1.92935483974509    0.09889042896807
Cl          1.25959016707553    2.90538074939756    1.12072532674091
Cl          0.48260557820801    2.29367994547084   -1.60758974314190
H           0.41651210678832    0.87503944991629    0.27764165641074
Cl         -1.49422599794579    2.23392500295185    0.50910032425680
C           2.39204668820149   -1.74611407593172   -0.09272500689588
Cl          2.22956402457469   -0.64675795436842   -1.47263175344425
Cl          1.17656351918380   -3.02291708702852   -0.18376522923600
H           3.38249081358185   -2.20367498119308   -0.11975899117883
Cl          2.22303418354127   -0.84827602756898    1.42618224833325
C          -2.12176454911550   -1.35842115549326   -0.04239261293199
Cl         -3.68452535090357   -0.53462946147699    0.05400700802854
Cl         -1.20123192380524   -1.08748362750795    1.44241699766575
H          -2.28859694380952   -2.43093253573120   -0.15644575246233
Cl         -1.21217096874582   -0.77502619301685   -1.44241034057362
