24
-62.186189659849
C           0.15315777777820    2.13098952121248   -0.15587853339957
Cl          0.56463100823889    2.02864891995050   -1.87217463402977
Cl         -1.33690080566578    3.05980781142110    0.05922275355280
H          -0.00354078227907    1.12427953168952    0.23644860600612
Cl          1.47913929797074    2.89164018553253    0.73676008116205
C          -2.45743502438140   -0.96584143476791   -0.00621453763899
Cl         -2.15596245721156   -0.07919937168236   -1.51311925434683
Cl         -2.20494633559292   -2.69620777805080   -0.26235116030893
H          -1.73557546310281   -0.62623438724273    0.75030360083764
Cl         -4.10743110553677   -0.66324847107782    0.56478382632856
C           2.27977772678344   -0.89709406504977   -0.02616697606597
Cl          3.47961521080015    0.19907594448431   -0.73414741268284
Cl          3.06846194378267   -2.37049790263680    0.55794792984184
H           1.78660449888245   -0.40642174679834    0.81889405652632
Cl          1.04367905866525   -1.32122207033923   -1.22843786524094
C          -0.46581287922017    0.23995192512163    3.12755372023428
H           0.31776038656782    0.07636610362482    3.87153586384245
O          -0.13141046026620   -0.37131788671430    1.89693131892641
H          -1.41127254880135   -0.15143613285006    3.51451224479571
H          -0.56802037276164    1.30802479540996    2.94337414970000
H          -0.02823033480743   -1.33831531697943    2.06921532615117
O           0.12056362432959   -3.04942569290029    2.09502677371793
H          -0.52892752439731   -3.37919628576921    1.46344132576998
H           0.98466912995720   -3.30216854797626    1.73185329826141
