33
-77.447843512545
C           2.23542098650743   -1.54983046563742    0.12725119436942
Cl          2.35077064368047   -0.62612110935842    1.62747538749606
Cl          3.83213458703492   -1.70466760663909   -0.62027858662036
H           1.56029199283643   -1.04104959835112   -0.57228923788065
Cl          1.57639836422192   -3.15409940255352    0.46335432600038
C           0.28735134128273    2.49503354607756   -0.02487398470409
Cl          1.83557029278817    1.91764595177411   -0.65466689149559
Cl          0.22174744989679    2.26234882118415    1.72387013428456
H          -0.51664774147777    1.92905052159283   -0.50912009516872
Cl          0.08547921022238    4.21074840595662   -0.41552771136226
C          -2.60484490748489   -0.56776483182394    1.24558581714278
Cl         -2.98659274148230   -0.92000962010773    2.93991897075359
Cl         -3.03760838954076    1.10599970971423    0.87097712063612
H          -3.17284736870568   -1.24025851863436    0.59317081803196
Cl         -0.88312875789987   -0.82016358617437    0.94977601660923
C           1.14302479152882   -0.69632117264499   -3.34682299426933
H           0.52318255016288   -0.75088553024801   -4.24557785555984
O           0.35549844355963   -0.79607053446653   -2.17893690183943
H           1.71201652252386    0.23656932944373   -3.35479468084777
H           1.83694182648122   -1.53568991936865   -3.34121836165594
H          -0.28410253868567   -0.04619197383092   -2.16804977540662
O          -3.85769053891784    0.15718547750432   -2.21431593989351
H          -3.76739915765357   -0.75595891090373   -1.86836265670344
H          -4.38989995261132    0.63448475873709   -1.57410024837280
O          -1.42767343713504    1.22766374241935   -2.22623739717466
H          -2.33031311436641    0.82357448902257   -2.22531491048819
H          -1.40711279287722    1.82670423787897   -2.97462832342809
O          -1.08503059065449   -3.06084309183847   -1.66223990949943
H          -0.60592069539070   -3.44448838345441   -0.92292220852050
H          -0.56771612217474   -2.27592451757960   -1.92971909131758
O          -3.55609486020467   -2.28927522537585   -1.10104589941092
H          -4.13648454633765   -2.97989527953522   -1.42589735790026
H          -2.63663733820193   -2.58446826962236   -1.32128567745501
