21
-57.102161994988
C          -1.92233645594836    1.39975630817823   -0.03701967679414
Cl         -2.50690467754414    2.72551551522861    0.97730853177798
Cl         -0.69003356611148    2.00044977049581   -1.15969031431523
H          -1.47059584210370    0.63746111445198    0.60655973317613
Cl         -3.26578508068015    0.68495279673338   -0.93500348197578
C          -0.67477988436964   -2.66575011927584   -0.71825453864131
Cl         -2.00765993603872   -2.41524915761973    0.41591948074508
Cl          0.85149564952289   -2.83950000376068    0.16177819714967
H          -0.86055454616213   -3.58404457046760   -1.27826196432566
Cl         -0.57271426239505   -1.30806670511809   -1.84844732648784
C           2.25098355463558    0.46586802255139    0.02193728267439
Cl          2.49007777654032    0.15928619325080   -1.70122912628371
Cl          2.50478509858041    2.17918680266565    0.37543671325459
H           1.22856008890494    0.19611985995021    0.30431108636167
Cl          3.36889372237435   -0.52089587994646    0.97420092937755
C           0.23156397797719    0.65214375317033    2.96067548584601
H           1.24247978821516    0.43640166753424    3.31511831648438
O          -0.13031971159062   -0.20835494132777    1.89785634422106
H          -0.47220218203446    0.56871869385500    3.79265252665971
H           0.20040905862222    1.66653152587927    2.56782149081574
H          -0.10707614288481   -1.12032550107910    2.21119328143413
