33
-77.447261409917
C          -2.32390970787455    1.45291507957824    0.28958620867819
Cl         -2.34228610597552    0.38522892071760    1.69798439601786
Cl         -3.97391996424306    1.67198355415326   -0.32608301087885
H          -1.69387584748477    1.01525072844928   -0.49188392126859
Cl         -1.64621582491836    3.02030586396594    0.72960453271878
C          -0.21475383449881   -2.49306276272582   -0.26215920043566
Cl         -1.76836240117164   -1.96173719391955   -0.92835178299412
Cl         -0.23477386317693   -2.33915631886193    1.49967000716716
H           0.57992562064044   -1.86787408831059   -0.69055105705959
Cl          0.08786456405947   -4.17987077450249   -0.71653777736266
C           2.59690984028848    0.57410373279571    1.29853944462376
Cl          0.86017864948599    0.81557995294244    1.08553032413310
Cl          3.03093019841796    0.76211467217112    3.00802670382028
H           3.12654378173689    1.32027909783765    0.70095465992153
Cl          3.05323680513438   -1.04132877980654    0.74010072624975
C          -1.19586459252056    0.94670689849793   -3.25260684445853
H          -0.57591451833102    1.09400563202622   -4.14034427554746
O          -0.41225433958502    0.94872339394655   -2.07758474276944
H          -1.75254157357502    0.01091685365617   -3.34934657274853
H          -1.90166807383920    1.77273594913064   -3.16830756643592
H           0.26303837330742    0.23365782891286   -2.14992796535007
O           3.82887120446008    0.21332918753810   -2.25785862721442
H           3.69924243581031    1.06618260847671   -1.79305733972156
H           4.39605438041299   -0.32399875146534   -1.69791622978757
O           1.45296449003838   -0.96360539253658   -2.37218165368221
H           1.42062639813264   -1.49334482226136   -3.16951272508054
H           2.35185696916774   -0.55673518744605   -2.33751194531904
O           0.95448145052386    3.25397719473835   -1.57849209164710
H           0.46526759179602    2.44039162604227   -1.82159257317033
H           0.47747632921405    3.64667671514203   -0.84266104642292
O           3.42311939594910    2.52626041476852   -0.89928201137453
H           3.99323469666488    3.24763372729029   -1.17492030887007
H           2.50615764060525    2.80828722719173   -1.14244600141314
