36
-80.603674605961
C          -2.39664720537423   -0.91869017030494   -1.32586482444487
Cl         -2.69279687423483   -1.29026136601338   -3.02995507137000
Cl         -3.00753389699745    0.69951683369537   -0.94602995736921
H          -2.90235375595961   -1.65353128511898   -0.68930375335339
Cl         -0.66243244145945   -0.99270757251556   -0.98621449934818
C           0.01139717359432    2.44023673519941   -0.14396304224694
Cl         -0.46766885945743    4.11162017056816    0.18745873403189
Cl          1.57709030100041    2.10350530079060    0.59801288783438
H          -0.73294243308354    1.76725076375546    0.29838077480630
Cl          0.10058668710838    2.17050852993653   -1.89170755086345
C           2.43567292080994   -1.33688370027929   -0.19061858137376
Cl          1.95504108474187   -2.99237626470547   -0.54523623187430
Cl          2.51015205799031   -0.39668939950346   -1.68754819232852
H           1.69516980859781   -0.89890850568249    0.48696846175627
Cl          4.01927222279306   -1.32814176165457    0.61044888904272
C           1.24055288883855   -0.65709910821827    3.27954692184469
H           0.61610810646027   -0.76518661744683    4.17162305221535
O           0.48185127503975   -0.81554917362874    2.10159194699284
H           1.73421025962193    0.31934904488938    3.30308086985702
H           2.00089882717923   -1.43876996873012    3.28256555580233
H          -0.24144367506887   -0.14318947979013    2.09054735471004
C          -1.54199602256728    1.90922058105938    3.13653947797570
H          -1.70874057496307    1.40370056095457    4.08945747266976
O          -1.54296876797695    0.98005817108031    2.06852561254380
H          -2.31573331740527    2.66660044785921    2.98996482277758
H          -0.56639597961615    2.39431913163388    3.14620069619736
H          -2.38663730358394    0.47200411525437    2.10808074322006
O          -3.82467491735412   -0.44508662622111    2.14385952882388
H          -3.59520082472435   -1.33712337532106    1.80963449322736
H          -4.40527203872308   -0.05792846170036    1.48034445755340
O          -3.13732294826541   -2.80011592475542    0.96658151106879
H          -2.19786848812329   -2.94702631340840    1.24873291339614
H          -3.61457764579718   -3.57665527719335    1.26912025731027
O          -0.63220162342094   -3.26509873070938    1.67953355886021
H          -0.21436903250749   -2.40745825107631    1.90821457505147
H          -0.09937526579561   -3.63359113817628    0.96540117446081
