33
-75.517777348635
C           0.78683467878169    2.18720288920684    0.24493596418270
Cl          1.81198001564046    3.56734697783615   -0.17735036719565
Cl          0.92887166605487    1.83109692327098    1.96876786898285
H           1.10692838035555    1.31861287739150   -0.34056314117213
Cl         -0.89520147974185    2.54550325670802   -0.16102095195332
C          -2.73097397804836   -0.58017722014729    0.49305342149810
Cl         -4.41378507192772   -0.07685786834343    0.27867301721996
Cl         -2.08433553399997    0.07299515467398    2.00066002366489
H          -2.13787136571570   -0.21468025940006   -0.35459326394607
Cl         -2.63440004576699   -2.34426556602710    0.51626733374964
C           2.29779932974368   -1.77348261962646    0.42248797058003
Cl          3.30332234943538   -0.31969204652339    0.51032057433632
Cl          2.82921957701639   -2.95358090217356    1.62923813197850
H           2.38566212036181   -2.20625655638996   -0.57938841920815
Cl          0.60418218501663   -1.35139399553280    0.69952700769202
C           2.06235537892576    1.14412920297669   -3.10549924356561
H           3.13356978267201    1.08832058187917   -2.89803108323479
O           1.33160552164040    0.33857478436131   -2.20551767693721
H           1.88076854059827    0.84605216240492   -4.14204835439762
H           1.72765063142892    2.17087159951055   -2.96491041227150
H           1.60273881954662   -0.59868814990557   -2.32601480418140
C          -2.08363727720287    0.70212051463674   -3.12374274023713
H          -3.11663688158155    0.35848864486920   -3.09951442632377
O          -1.36171120161366   -0.08997450001063   -2.20430310435317
H          -2.05059079873308    1.75673016643286   -2.84093187033446
H          -1.69104067588020    0.58610680022961   -4.13748650647034
H          -0.42299494086846    0.19823627189506   -2.20146186793118
O          -0.82211633752322   -2.77481127009174   -2.32744380392014
H          -1.14146112692344   -3.13094178200245   -1.49414077291836
H          -1.15673161092300   -1.85901281392045   -2.36795245436542
O           1.78637378794237   -2.32766345110331   -2.53432962393015
H           2.10223304572103   -2.74589021273025   -3.33731348476066
H           0.83233250206775   -2.57780345279778   -2.45340007514645
