36
-78.673113904007
C           2.48768277898778   -0.73562454122108   -0.02177002915243
Cl          1.71200537731912   -1.66977099259022    1.26468057670989
Cl          3.51477799606630    0.52187858711099    0.67531410063488
H           1.71185191349630   -0.27404341474756   -0.64332597849959
Cl          3.45206839019032   -1.81312371042281   -1.04175424051227
C          -0.41965518836144    2.34415396717240    0.27042080331397
Cl          0.21072456134699    1.30611528526480    1.55467340965891
Cl         -1.12938060261606    3.80825369963671    0.96598694600391
H          -1.18923410901366    1.79666749043333   -0.28643990655680
Cl          0.88609496763087    2.77225376269138   -0.84214048103977
C          -1.96419531841116   -1.58055411896682    1.58015749877033
Cl         -3.09483721484152   -2.94280662463060    1.53538732577681
Cl         -2.84404190012312   -0.07558629567118    1.28393564483873
H          -1.22470273473755   -1.72680020374790    0.78356411070203
Cl         -1.15189642759463   -1.51032921508298    3.14824435087830
C           0.91736824993728   -0.05746979842213   -3.46726537323465
H           0.22534462975047   -0.40917843209900   -4.23722340323994
O           0.36582030292735   -0.21348218562710   -2.17634451611981
H           1.16923867795405    0.98825085054099   -3.65895205556880
H           1.82715018255821   -0.65526206573557   -3.50302517288478
H          -0.47112571248257    0.30187228741731   -2.12385036962716
C          -0.11227690815864   -3.69287678085517   -1.33779598296530
H          -0.08815008150905   -3.91996067924099   -2.40699736695458
O          -0.74064720450674   -2.45175537355675   -1.09456344405158
H           0.90667473972098   -3.70043130881604   -0.94506472421780
H          -0.69926614341168   -4.45252012120726   -0.82381382833814
H          -0.22650156153517   -1.74033642975041   -1.53297450663678
C          -2.68699959893615    1.74584520582372   -2.84544232754168
H          -2.74544562791703    1.25795069647481   -3.82181534549138
O          -2.08768922869538    0.90050539341789   -1.88728999450657
H          -3.69206686412686    2.03879219965474   -2.53291435793469
H          -2.06530443000376    2.63729881192346   -2.92522285299651
H          -2.60955407517363    0.06128761233209   -1.83229183662821
O          -3.23859690616168   -1.52066518844131   -1.74874848979221
H          -2.42454977047236   -2.02692998838004   -1.57016524264220
H          -3.82234424552085   -1.67831115649552   -1.00321632884448
