36
-78.672863715922
C           2.68568975473583   -0.72144088406863   -0.12123687265306
Cl          2.13294408320352   -1.43188984733265    1.40199306198137
Cl          3.61595063217182    0.74724277559471    0.19542887329975
H           1.81482405594649   -0.47376467910878   -0.74087779881106
Cl          3.67887029103301   -1.88999131801855   -1.00188869179398
C          -0.29620848428237    2.23737262410418    0.49654886021947
Cl          0.63013596416021    1.71499414233285    1.90783130667313
Cl         -1.37607276070803    3.57084177188984    0.93008994906330
H          -0.89821581284955    1.40351201228503    0.12074303427216
Cl          0.80377348416386    2.74810783968779   -0.78726245907178
C          -2.84101945220189   -1.08757962271389    1.29298688459646
Cl         -3.52513295059224   -2.05855326075446    2.60453643632382
Cl         -3.38204552614893    0.59207981518258    1.43536582707204
H          -3.17084806386593   -1.49074232414691    0.33002413892378
Cl         -1.07358755430583   -1.15290422862499    1.35078782090971
C           1.13503653578054    0.22002181578075   -3.43514317555641
H           2.04725164565382   -0.34114260912203   -3.63224332790709
O           0.54703562672765   -0.33784303216993   -2.27784744730123
H           0.46718474980551    0.13349407691656   -4.29627547778490
H           1.38722590358676    1.27078221254145   -3.27654253680489
H          -0.27801782145308    0.15132999406039   -2.06979826643655
C           0.11939231341956   -3.65438096216752   -1.27971025828962
H           1.12989628964491   -3.88333642622424   -1.62499848044919
O          -0.56382250563398   -2.84792712378959   -2.21735528637581
H           0.17662103184684   -3.16461100212561   -0.30456188426519
H          -0.44306386473782   -4.58201247458496   -1.18470897507444
H          -0.06520511929120   -2.01012082511734   -2.31725185370529
C          -2.68759902967446    1.63156802234075   -2.21034356090346
H          -2.93440318678329    1.37522645163989   -3.24447819386387
O          -1.90561091551805    0.62399161551346   -1.60545092909332
H          -3.61058411748643    1.79832896245130   -1.65006322181178
H          -2.09644773481048    2.54603061368426   -2.20061989767035
H          -2.40275625768293   -0.22244828095193   -1.62263467216037
O          -3.00068746439722   -1.87587312312031   -1.67950811611184
H          -2.13527727688986   -2.32707673255551   -1.82465726050681
H          -3.59061147206948   -2.21035452238094   -2.35769083809867
