39
-83.758444759365
C          -1.76587037839842    2.76604812672433   -0.56844659933045
Cl         -1.89698059886970    2.02801972602395    1.03086409881496
Cl         -2.58910951476543    1.75216007971056   -1.76148405213236
H          -0.70719118936222    2.84116000318430   -0.84185930205804
Cl         -2.48760444217829    4.38396311894418   -0.54765121443869
C           3.87822639463761   -0.59097384124511    0.06461624825460
Cl          4.99206995859692   -1.76382870087587   -0.66449043906072
Cl          4.02082321400901   -0.63957990738796    1.82375831162820
H           2.85092739115822   -0.85383567975016   -0.21823215659577
Cl          4.24929632111600    1.02572783705681   -0.52722820179707
C          -2.79081782784926   -1.44472042683659    0.21652424575069
Cl         -2.96284419619446   -3.03513974718158    0.97888765239540
Cl         -2.39511584440927   -1.65212563768125   -1.49168927254170
H          -1.96956355642572   -0.90859971754671    0.70830940342848
Cl         -4.29076665681781   -0.52361570471680    0.37924593653157
C           0.99632506749911   -3.20016552015491   -0.65358603580065
H           1.41358530538596   -3.68725891580240    0.23143237541982
O           1.10507334951162   -1.79601728185366   -0.55667114912526
H          -0.04527958748243   -3.50664392377083   -0.77622483962211
H           1.56584272109864   -3.50583097654589   -1.52985720328204
H           0.59460031909516   -1.48863984445889    0.22788591442515
C           0.09715957998462   -1.30815810057583    2.83636907055293
H          -0.27950060452875   -0.67528041539937    3.64369304439527
O          -0.16064463788775   -0.72215490341607    1.57704026305141
H          -0.42416272582161   -2.26456144001873    2.86256684275313
H           1.16751241772378   -1.47397722979030    2.98091149338868
H           0.36512278531033    0.11170343263685    1.51058796673712
C           1.70485490700560    2.39920189994399    2.08470341793768
H           1.88580976799909    1.96698499242720    3.06823281606364
O           1.50066710784373    1.33054154840931    1.18978604540705
H           2.57527920727747    2.99258783727582    1.79410427679929
H           0.82668751292590    3.04997795398788    2.13418002161246
H           1.37654716697455    1.69578636557296    0.28342068371980
O           0.41257662722539   -0.00908484605440   -2.50924972758773
H          -0.53991117772215   -0.09117240618749   -2.60479375594267
H           0.68972018492018   -0.72566365591084   -1.90736664443205
O           1.14551211152810    2.24531787383505   -1.32775562391493
H           0.88832606320387    1.42669905840470   -1.82035273395678
H           1.98566554302738    2.52121827688670   -1.70035504770396
