45
-91.995806062235
C          -1.50926837122725    2.69998100175473   -0.56787749355330
Cl         -2.13494673607183    1.55301673759325   -1.74834115948447
Cl         -2.13741160729269    2.30534008863706    1.04026571236028
H          -0.41490446013685    2.63872292817799   -0.55495189659726
Cl         -1.99227506461840    4.34895843557739   -1.02098177265591
C           3.46201462349675   -0.98631609679383    0.10517334953768
Cl          4.29746073342194    0.57443715668016    0.11656276183563
Cl          3.13926912316305   -1.52130766021075    1.75269565957740
H           2.51937343163416   -0.90354532023406   -0.44075980169793
Cl          4.47505612431246   -2.20577738600582   -0.70244876390247
C          -3.11951978131973   -1.35814008493132    0.16919932531610
Cl         -2.68918873911745   -1.83160482912841   -1.48485446688888
Cl         -3.50277442469837   -2.80392185210485    1.11949657073616
H          -2.26179241795983   -0.85266968627676    0.62133608240534
Cl         -4.50638284816663   -0.25616893080165    0.12923635285368
C          -0.39226931886387   -1.35807779058040    2.82223016741814
H          -0.91180678964565   -0.81624706383261    3.61775149858360
O          -0.44079123692503   -0.63682527356856    1.60546866853129
H           0.64193002663989   -1.54486265418328    3.12648455125273
H          -0.89508793104893   -2.31234227308014    2.65646150373948
H           0.04921111971224    0.20687093273980    1.73035466569785
C           2.06681158342107    1.84370558016039    2.86507678066474
H           2.93826871082294    1.21709710789881    2.63388171075643
O           1.03011615723097    1.64637450124571    1.92802590006661
H           1.67347364873743    1.56170932889435    3.84666962601794
H           2.37976587850783    2.89678591430064    2.89838309402427
H           1.32294329069390    1.97875351485679    1.05430460566322
C           2.42626159619299    3.65739534228081   -0.76190746394314
H           2.38531391189497    4.05688932535344   -1.77754947147432
O           1.57970549303796    2.53356466478552   -0.62629482917167
H           3.46061355453982    3.39915094421811   -0.51825122333919
H           2.07245137925809    4.41939174364809   -0.06692134081444
H           1.88534181485525    1.84997331893420   -1.26831449522952
C           0.51760164713710   -3.42773093270080   -0.23856570958440
H          -0.52478396143670   -3.76937939556400   -0.30333813392327
O           0.61115567720770   -2.04197929593443   -0.47680919042839
H           0.92452085629609   -3.69282412158206    0.74331795799412
H           1.11169062606928   -3.93168602180605   -1.01215553885772
H           0.19425291233063   -1.55642549051550    0.27162039802519
O           0.17884970247327   -0.81466208130237   -2.88188207789767
H           0.23609105385806   -1.39941666221455   -2.10380443949010
H          -0.63993959163590   -0.31371990306255   -2.79323837077148
O           2.32674673794365    0.65468088135885   -2.40852861852258
H           1.50267462196133    0.15050195987913   -2.62447147913780
H           2.74952128708961    0.78234233324462   -3.26503105973107
