39
-81.828277376494
C           2.48423504476000   -1.16310510648724    0.07109228629451
Cl          3.14354100901400   -2.41225262948233    1.13683301007863
Cl          1.64643740648798   -1.92183372834437   -1.28970501367089
H           1.76340659307657   -0.56581367350037    0.64053302112682
Cl          3.78254906914846   -0.12018050014016   -0.51936831564872
C          -2.00322837231328   -1.17714894824522   -1.91059287396211
Cl         -0.93781506063565   -1.09339041387166   -3.31858273638061
Cl         -3.37799005060880   -2.23840562424990   -2.25114583734143
H          -1.45596786287915   -1.58124868527083   -1.04986568228276
Cl         -2.58577778436655    0.43932633450938   -1.49673953771799
C           0.10076132593443    2.45286963267798   -0.28701718533793
Cl          0.70287717802289    1.29529321902391   -1.47822618426927
Cl         -0.25813920549794    3.99922938549324   -1.06824685099653
H          -0.81314125595871    2.05431236678792    0.16662473059336
Cl          1.30833178406008    2.68149261325743    0.98355303870985
C          -2.26199568443273    2.22523743379268    2.77372324062956
H          -2.32811345638186    1.74138674518000    3.75160386016055
O          -1.90809597466439    1.29962575655963    1.76821973506345
H          -3.21864551147426    2.70197574063591    2.54631329587098
H          -1.48317549455194    2.98673255923349    2.80127879535885
H          -2.55975277946670    0.55926103937102    1.77768140545627
C           0.70294524345218   -0.36985993048888    3.35369455024785
H          -0.12550441728578   -0.64242533990765    4.01302813409021
O           0.27726539169131   -0.29137933918951    2.00843597317437
H           1.12828306288449    0.58118943800751    3.68256148933494
H           1.47119296418052   -1.14023520599611    3.40495110369802
H          -0.43432862578793    0.38558991255775    1.94506650069540
C          -4.60558763328147   -1.15268450266515    1.27593733492797
H          -4.95045176996748   -2.18531647209744    1.36889627193207
O          -3.36694780812610   -0.97020091193259    1.92720543314858
H          -4.54083199618977   -0.89092435684425    0.21704619190449
H          -5.32315151433709   -0.49488299124850    1.76469865654055
H          -2.70548018368494   -1.56728763950669    1.52227081830736
C          -0.76239768365919   -3.58933667061440    1.10282687314481
H           0.23836148866842   -3.76893143810485    0.70437630660015
O          -1.18350832208369   -2.26679128469344    0.83960848839203
H          -1.46872989682288   -4.25398128262531    0.60738117145066
H          -0.76495023113703   -3.79711730820403    2.17622249029863
H          -0.55594704237737   -1.64260237881455    1.26612528596003
