45
-91.998596404492
C          -2.66215961942438   -1.11568252329877    0.00742125834974
Cl         -1.87357025393592   -2.69395806109302   -0.07229463541525
Cl         -4.08185642980387   -1.20283889112772    1.06030884084886
H          -1.95149232524205   -0.39675556515447    0.42780015979403
Cl         -3.14109605336130   -0.58721161350027   -1.60973592966471
C           1.57943875166826   -1.32191091191668   -1.38928654462678
Cl          1.23877345067752   -3.05332513512976   -1.54617775699532
Cl          0.15360603664655   -0.38227616469718   -1.83577699344319
H           1.82828999448110   -1.10357642851562   -0.34659260613381
Cl          2.93737392689028   -0.88626399384960   -2.42807198118847
C          -0.98675243299642    2.57389521565673   -0.16954891602168
Cl         -0.29050671204709    4.07014556467249    0.46178404945170
Cl         -1.14887044145061    2.66675589735744   -1.92923438419521
H          -0.32991618339439    1.73702642768294    0.08337744852754
Cl         -2.57233354243104    2.29630973096149    0.56289535577240
C           5.03470205305438   -1.06170550586089    0.48637672285446
H           4.22919059396919   -1.80171402317711    0.50716021197029
O           4.58162722195321    0.20568318418660    0.90253833133881
H           5.85922241731559   -1.41170409797916    1.11399316778292
H           5.38996803144035   -0.95498488886558   -0.53699855163006
H           4.23645831635899    0.13354273524851    1.81489470745879
C           1.47154923440854   -2.91040846366355    2.17446306590620
H           1.06690846793005   -2.94294250011939    3.18965830823051
O           1.68009067115040   -1.58052706980853    1.74714044136967
H           2.40131141526588   -3.48392788461746    2.14209348650994
H           0.75410480416656   -3.35618747877526    1.48740045407312
H           2.29325771734290   -1.13470891862332    2.36481242729800
C           2.75871872597757    2.50474869604448   -1.08006521172726
H           3.47041578738982    3.22224779518745   -0.66247215392857
O           2.40909700555640    1.52234194731824   -0.12885621605141
H           1.84544802454020    3.02754355060375   -1.35798893531738
H           3.19291741622388    2.04847436617873   -1.97249576651813
H           3.22549043061001    1.03462295051979    0.11461232797881
C          -1.16684588934725   -0.21393390992934    3.03933587086315
H          -1.60117016945227   -1.21369884071387    2.96669307827658
O          -0.45596469770300    0.12258380014854    1.86368005931132
H          -1.96834088136776    0.51476195870518    3.14748060607815
H          -0.51943953532390   -0.16613433286304    3.91955568450294
H           0.25453868686725   -0.54347666797970    1.73244341681965
O           1.59582702073915    1.92375785018875    2.43642805283893
H           1.90546876050726    2.01398050098360    1.51476774418791
H           0.73499553676888    1.48238505413153    2.35728995085791
O           3.21897937249147    0.07353782246770    3.29893077077399
H           2.62135071422543    0.83539193721173    3.04138158507306
H           3.57443438011477    0.28833106912138    4.16229575678190
