39
-81.827866965034
C          -0.11965911077401    2.65156023948890    0.24955700817502
Cl         -0.62101932343240    1.80051064054922    1.71632282768466
Cl          0.28108787126609    4.33351763870071    0.62526872985220
H           0.76200706250730    2.15720783022662   -0.17255504842040
Cl         -1.42448589814683    2.59566078811888   -0.94339133671388
C          -2.47232058004857   -0.97057686835770    0.27357366824598
Cl         -2.05585573291986   -2.66330215896117    0.01966340915422
Cl         -2.91492426218705   -0.70258560011100    1.96392628048486
H          -1.59744281952523   -0.36665145227971    0.01577063966463
Cl         -3.81283053701816   -0.51270871992851   -0.78455122182822
C           1.88257555055433   -1.45228515677093    1.58885232625424
Cl          2.36387434972599    0.21744146496712    1.26263532148782
Cl          0.31317373664972   -1.47429890133313    2.40479023995973
H           1.79701189437618   -1.98303920251578    0.63171100870428
Cl          3.10764163020228   -2.24494248940415    2.59138525043236
C           4.70169442961487   -0.90118464272388   -1.45855907170606
H           5.17124618042664   -1.86184878115860   -1.68445532850728
O           3.49150832354804   -0.74867681521606   -2.16718618915090
H           4.54349103565336   -0.82394267049641   -0.37963533438418
H           5.36464349915673   -0.09953112750192   -1.78113736957962
H           2.88079720931021   -1.46475594789402   -1.89865325924045
C           1.95330290143338    2.25939499830421   -2.89145495506008
H           1.94583136665297    1.72521744098132   -3.84482709382741
O           1.83532122465923    1.36593395528854   -1.80420123348040
H           2.87388807587614    2.84354757733460   -2.81802974815140
H           1.09957303325971    2.93501623341379   -2.85096483469247
H           2.55076894983593    0.69191495103190   -1.87658908059814
C          -0.89945258209201   -0.44926680385627   -2.94917345198627
H          -0.20963329954922   -0.61216803981798   -3.78217369740817
O          -0.21175593554796   -0.41880638519326   -1.71493165034213
H          -1.44763068451004    0.48108618769018   -3.11267744867043
H          -1.60792051073386   -1.27497300796660   -2.90338794003019
H           0.45388867832287    0.30523936344922   -1.74830464052935
C           1.12000458300871   -3.71934862788687   -1.75071865777842
H           0.95867437396385   -3.69547301274035   -2.83193690986882
O           1.51300268430672   -2.45135660392494   -1.26850483410223
H           0.20629092110917   -4.05837167172691   -1.25773849323474
H           1.92859355163493   -4.41350289597951   -1.52551837128437
H           0.78213903620902   -1.80894033318389   -1.42762277732845
