48
-95.152759937185
C          -1.27294618456487   -2.64590949868506   -0.24039723086277
Cl         -1.85460396156049   -2.39698036387555    1.40909526343545
Cl         -2.50143316816559   -3.49831275449245   -1.19012374785685
H          -0.35527173207121   -3.23993243499567   -0.21110012917818
Cl         -0.89826278607579   -1.09474681996738   -0.98837207410834
C           3.43614311241159    0.57083924618444    0.44576832186508
Cl          4.30644883912411    1.62394649038345   -0.67730248387163
Cl          4.34123544371169   -0.91760397097340    0.69404706994865
H           2.45875014136772    0.33033976913416    0.01978526993821
Cl          3.20493021452842    1.39399559575798    1.98582200269835
C          -3.29639331244179    0.91640661436641    0.30345972385696
Cl         -4.28321113988677    1.88560180783957    1.40976484797086
Cl         -4.22687293383651   -0.46645674954078   -0.28164764773861
H          -2.40443074062171    0.56493110775493    0.83662812329746
Cl         -2.77207549838185    1.90990264591875   -1.05930361017387
C           0.71143817882538    3.31771452132574   -0.14992161880303
H          -0.30119695232674    3.71269022764894   -0.27476330299191
O           0.74491155550133    1.92365634794439   -0.35545132909180
H           1.07813640840035    3.57851572536157    0.84654909128638
H           1.36530254589377    3.76885448548413   -0.89533112978044
H           0.18253462931171    1.49495632273567    0.32382742706973
C           1.56001065292333   -1.89481219461484    3.05781576610075
H           0.83008703177810   -2.68716964471496    3.24993546464309
O           1.30694496841835   -1.25453628530505    1.82842933573110
H           2.56700707570610   -2.31953693016523    3.07968439799204
H           1.48151224521491   -1.13973034250430    3.83897730847132
H           1.42159270056135   -1.90952055607613    1.10507881041845
C           3.49495952653624   -1.32843552320697   -2.89733025414482
H           3.17752670321910   -1.76075456153036   -3.85121641359089
O           2.39868436425983   -1.14999161860235   -2.02918284768822
H           4.00191571320536   -0.38043060627100   -3.08813066753475
H           4.19152906011796   -2.01095266950928   -2.41069544508770
H           1.82479606092279   -0.44760437639246   -2.40751509700482
C          -0.11943339603992    1.11014217567156   -3.69561760537907
H          -0.94649608879871    0.58175445633070   -3.21449564197912
O           1.06166990257534    1.02196753156409   -2.93277122504366
H          -0.40908291747109    2.15243336846488   -3.85482751913759
H           0.08748131650561    0.64913117361049   -4.66073677208261
H           0.90246864206118    1.42370021543710   -2.05507209566471
C          -0.58065669840149    1.37241338652658    2.92713332405962
H           0.42844784150329    1.70234844999128    3.18676858927038
O          -0.58889219433755    0.67875860019855    1.69756160192772
H          -1.22603462553555    2.24296512304539    2.81318654015869
H          -0.97129203479992    0.74426402571999    3.73229304192504
H           0.03318777745489   -0.07990377401392    1.76571364256805
O           1.75915664910074   -3.02497917765939   -0.19304306979591
H           1.93549497777672   -2.38323878912541   -0.91268263873363
H           2.59865606256443   -3.45738757028500   -0.02042921836108
