21
-59.029744721628
C          -2.44703355457518    0.26613904194413    0.05485530827618
Cl         -1.79044723689371   -1.01496501992835    1.08653252189930
Cl         -2.86302829131543    1.68031927250942    1.03395409241320
H          -1.68221078317280    0.54062259331121   -0.68256990529547
Cl         -3.87545451177941   -0.33135570083466   -0.80139261150420
C           1.09996570401691    2.04233286452576   -0.33010513036671
Cl          2.75796672728262    2.64786590112965   -0.40256164096316
Cl         -0.05158008324593    3.35116089187246   -0.63652620194081
H           0.96119073728575    1.26768068945005   -1.08961032444362
Cl          0.77892753834515    1.32808648666403    1.26033332922735
C           1.49757422471268   -1.84120277443861    0.07545093462981
Cl          1.33920996520612   -3.44055873324384   -0.66356835773081
Cl          3.03149343376813   -1.09983217533245   -0.40654855389454
H           0.67936504949245   -1.21226107937550   -0.28571158201447
Cl          1.39562980499622   -1.97930569455907    1.83497810092885
O          -1.50422225826304   -2.55887523090245   -2.07222659414550
H          -2.25910121019113   -2.60295923765970   -1.47375315197322
H          -0.86398205510606   -3.22540401061831   -1.78640428552953
O          -0.27464294246032   -0.15196541423991   -2.07764075358505
H          -0.14864204753734    0.14080609494497   -2.98330546101386
H          -0.72618848908242   -1.02145167235535   -2.14469489834639
