21
-59.029897664647
C          -2.32611693116315   -0.72352354285343   -0.09653948464573
Cl         -3.47431220528915   -1.82116303747188    0.68657965151894
Cl         -3.18353608816249    0.45237415142023   -1.09760770142444
H          -1.75172575543707   -0.20442832636841    0.67917324802392
Cl         -1.19753394365195   -1.66019527802379   -1.09246876113699
C           2.11458366345424   -1.10519986794505   -0.04298748880838
Cl          2.15160948372157   -1.25552423738559   -1.80360923017398
Cl          3.18899057896653    0.19496569871284    0.49164358076316
H           1.09627034711780   -0.87405963663773    0.27820453480633
Cl          2.60269191657205   -2.63461316070490    0.69869207385775
C           0.21227367726852    2.25334170660083    0.35644826784253
Cl          1.49998583464092    3.45311633337878    0.51457232858903
Cl          0.23754726388170    1.54479522223180   -1.26616582030521
H           0.36751089551981    1.45457228500678    1.08729875931756
Cl         -1.36538517079311    2.99637915717301    0.65943534082201
O          -0.22004360170580   -0.27567587466870    2.10274186703062
H          -0.28186716598867    0.03000152048693    3.01022755561772
H          -0.27725184725387   -1.25219238608119    2.15404012796502
O          -0.40596477656285   -2.98031800348692    2.01132508691325
H          -1.12136505044826   -3.27962404641617    1.44358515217386
H           0.41042152824982   -3.36544129372074    1.67615440579898
