24
-64.113970182010
C          -0.26739688586560   -2.37811481022124   -0.41137884752724
Cl         -0.82813598595537   -1.70020259399881   -1.94750653632995
Cl         -1.25293057319286   -3.78372078348846    0.03463801627735
H          -0.35620230455560   -1.62082290642865    0.37809530689097
Cl          1.43762042111096   -2.84299043774203   -0.54298617410845
C          -1.98718066306098    1.76594750896982    0.12115267677147
Cl         -0.79095798635821    1.62542604453057   -1.18163165265813
Cl         -3.22504995162410    2.95995997596548   -0.30711659409469
H          -1.47212218572376    2.08041399495064    1.04116895100124
Cl         -2.74536821636468    0.19019386215720    0.40346778945040
C           2.27290637237544    0.58546407504914   -0.12104716077996
Cl          2.33802069389791    2.29788169569876    0.31228087601234
Cl          2.28014775318357    0.40556396345447   -1.88037327745629
H           1.34942127008578    0.16135122866005    0.28470611849279
Cl          3.64922430003077   -0.26971928904062    0.59544588945354
O          -1.77707919581872   -0.00274064882555    3.56210151697171
H          -1.53198280371665    0.93069900403180    3.59595102059994
H          -2.58482736830923   -0.05988184875247    3.04431056578042
O           0.36187399433651   -0.56318560644833    2.04760126680297
H          -0.44300803297001   -0.54913909107526    2.61607868455721
H           1.01446312650833   -1.08474227329162    2.51999285404831
O          -0.17664519353026    2.15739248668073    2.52931083280644
H           0.26427013166674    1.31621090453727    2.32485915324771
H           0.48571919691602    2.84402812774901    2.41896435174729
