27
-69.204233012017
C          -0.21938973711178    2.64073042013564   -0.11431601157809
Cl          0.85000580668381    3.21251343602094   -1.40149224592869
Cl         -0.90705495439798    4.02052013735472    0.75588594611882
H          -1.02964386494083    2.06191227127517   -0.56901118287093
Cl          0.68305447918524    1.60669932991874    0.99739047549192
C          -2.58999019784196   -1.01009261299794    0.87343835721836
Cl         -2.73635366756768    0.70406924279836    1.28792058938990
Cl         -3.53264504082388   -1.98928620233897    2.00887363385007
H          -2.96838810721642   -1.16784216294977   -0.14230287244073
Cl         -0.89350922915743   -1.49646073782045    0.92356634846870
C           2.31375587195297   -1.42860253975685   -0.02547553145320
Cl          1.81891719902914   -3.10190323068815   -0.29859289206572
Cl          3.90846308431969   -1.15342328232193   -0.73983599553358
H           1.58841966178124   -0.76706561491004   -0.51375576368332
Cl          2.35575525696330   -1.09748489748171    1.70927193839689
O          -1.88172586030162    1.04304984203823   -2.18542391076397
H          -2.22589767459689    1.52460592186502   -2.93976460016673
H          -2.37173977528668    0.19416397420464   -2.14493618237971
O          -2.96343658099087   -1.43049227797704   -2.15234662440101
H          -3.57961112142074   -1.79749468884959   -2.78837431773802
H          -2.10121953173285   -1.89541538884506   -2.30481208374994
O          -0.56884573278543   -2.47861670650872   -2.57355967345790
H          -0.02337453763140   -1.67157687189271   -2.53585647800549
H          -0.21355314751159   -3.06258620787844   -1.89822832825194
O           0.62387954914715   -0.03833189179135   -2.19445994314458
H          -0.23767921301360    0.42304366124267   -2.16044110117474
H           1.22346328415852    0.53883664418983   -2.67137712923288
