30
-74.291200242759
C          -2.72380577187511   -0.43811131142947   -1.02111848864317
Cl         -1.01734335653753   -0.68957895354404   -0.66582176875812
Cl         -3.42487934589583   -1.94565355552130   -1.64691119908410
H          -3.24683749228375   -0.16941751598690   -0.09690386065322
Cl         -2.90805860460713    0.85148160233789   -2.21955222672540
C           0.47628715495353    2.23604054398816    0.22631891008544
Cl          1.48496289387688    3.49011466158442    0.96023471148902
Cl          1.06169445156215    1.86267457491982   -1.39856649784658
H           0.50841129753909    1.33681558215930    0.85094209599160
Cl         -1.20266182728655    2.79740111160405    0.14007218339250
C           2.32458584946721   -1.81764626461212   -0.08262252544155
Cl          1.96001078657073   -1.57086124796414   -1.79169133001479
Cl          2.98285550321513   -0.32904664734474    0.60901273102610
H           1.40764125731235   -2.08177202416668    0.45710637235694
Cl          3.50214303154357   -3.12948365265811    0.10531288461843
O          -2.53060119784976   -2.82777267735268    1.54728756329482
H          -2.99548784263166   -1.97951321194951    1.69702460162382
H          -2.74496421957524   -3.09862318528377    0.65126262712563
O          -3.76900484962647   -0.42919774304238    1.83547658928285
H          -3.15465420379542    0.20209774390027    2.29720847471471
H          -4.57376720949165   -0.44037779379468    2.36037166757019
O          -2.07581398253899    1.24270096994050    3.01249646590217
H          -1.20002434352644    0.82353024272360    2.88270060059626
H          -2.05787447839439    2.07220645341400    2.52414100808677
O           0.06751002097413   -2.44667463314427    1.93059927178455
H          -0.89921618446750   -2.57745295367569    1.76059291319382
H           0.29902876642668   -3.07228209744118    2.61985512065765
O           0.35880248846836    0.17621596855436    2.45894329698968
H           0.21035132418887   -0.77818063599867    2.26582610034381
H           1.11696555747495    0.20277607411773    3.06849533246099
