33
-79.380244251899
C           1.08004914421208    2.14478569414088   -0.32126316829062
Cl          0.86424949965125    2.15172672179245   -2.07479975562526
Cl          2.74533309340839    1.69859419986606    0.07845905931039
H           0.40734000399732    1.40541523262460    0.13210533377672
Cl          0.70876008831882    3.74206811984811    0.34139518843672
C           2.42364786709631   -1.98224442920693   -0.09887874063823
Cl          1.28739765656988   -1.19178916537036   -1.20390189380575
Cl          2.06200630730649   -3.71291570301458   -0.01432389877878
H           2.31585845207450   -1.55409745261499    0.90474293229769
Cl          4.08073499870030   -1.73109538766021   -0.66622669764120
C          -3.12738927627817    0.79950911872159   -0.40147288435961
Cl         -2.51845481192237    2.10884739511296    0.61851962585693
Cl         -4.43466574752770    1.40312867281161   -1.43454494488394
H          -3.51532258809292    0.00093261312971    0.23880567674900
Cl         -1.81767780996362    0.15089692599579   -1.40053758644647
O          -0.36744579110242   -2.39446975746836    3.55515008386875
H          -0.62361285226508   -2.69344054201910    2.66912434662860
H          -0.96616185341508   -1.66471694286317    3.76337962491315
O          -1.08034168320584   -2.36797209353197    0.83942872679702
H          -0.74953538191995   -2.72324738935765    0.01259289334950
H          -0.70123568722457   -1.45548873587049    0.91852444861548
O          -2.15770408037441   -0.14203381249160    3.35890138108619
H          -2.76922692862961   -0.62146470320110    2.76162930023673
H          -2.60707751535594    0.66000795903966    3.62860617734265
O          -0.16474077987700    0.04889223221638    1.46935915495989
H           0.65768975815821   -0.19003280474077    1.93377947121266
H          -0.83245466687082    0.18104086290040    2.16687495099181
O           1.86675816413889   -1.12932194486372    2.83896252723875
H           1.15390806068193   -1.70776035655322    3.20480542439333
H           2.43218519129606   -0.88621432265728    3.57265079552912
O          -3.53998987658948   -1.60254740105213    1.53531098901747
H          -4.09884918748198   -2.34217537917217    1.77919253047470
H          -2.69882443038460   -1.98558463516765    1.19534524478418
