33
-79.381045609334
C          -2.26016584558975    1.33232873243188    0.36632411385244
Cl         -3.70486636100277    0.32237956952480    0.23498633289465
Cl         -1.87322329914031    1.61761364582657    2.07017533952091
H          -1.42354224196206    0.80308022783830   -0.11149343194465
Cl         -2.51980269361900    2.87271506934208   -0.46587813028699
C           2.43746671601736    1.27759455640602   -1.00238228660005
Cl          2.95607733839026   -0.31704811388300   -0.45563602877027
Cl          3.84680815598755    2.33699608461826   -1.17851265740620
H           1.93693697884574    1.17305615439135   -1.97123157212081
Cl          1.30185673032275    1.96728785964381    0.17163274337321
C           0.28295157271306   -1.41354649940838    1.62368404931639
Cl          0.80799971766371   -0.43669229149783    3.00166000083345
Cl         -1.38855947669714   -1.95188524818602    1.85273354624918
H           0.32642673845736   -0.81275495686013    0.71001784571696
Cl          1.34262394104294   -2.81748346779512    1.43640528449238
O          -0.27371544439541   -1.70916612295944   -4.15358099110969
H           0.29651920140712   -2.27650015556195   -3.61398897364876
H          -1.15516637023060   -1.79445130942422   -3.76505723280092
O           1.03563839477119   -2.68202708080414   -1.86175015726321
H           1.92205311580884   -2.74858078196252   -1.50388997806810
H           0.66374210680190   -1.83695656601360   -1.52926689829185
O          -2.39393943454900   -1.88244988310224   -2.22316721272260
H          -2.10042351927843   -2.73730370960431   -1.82287151655064
H          -3.27106317090514   -1.70226227526335   -1.88079665584236
O          -0.37957041307177   -0.44552088255861   -1.19558367660190
H          -0.07786354261928    0.10768954270689   -1.94242164343956
H          -1.17299769894927   -0.91751937073898   -1.53694925103850
O           0.52641823620872    0.72622995150899   -3.45089369626221
H           0.32108983551564   -0.14858140897514   -3.86801468651834
H           0.07419134454907    1.38642675137723   -3.97811804365488
O          -1.24366618306260   -3.95187422749879   -1.01725195390459
H          -1.22767483797142   -3.86713148332294   -0.06067307509959
H          -0.34740171208679   -3.72606032467658   -1.32879445949788
