20
-65.156437823191
C          -2.23432080642221   -1.62804463438082   -0.46369453160269
Cl         -3.73964207536156   -1.98917123361013   -1.31939032285764
Cl         -0.88818204310360   -1.57427773557313   -1.60773141565205
H          -2.32570316714386   -0.65194347568013    0.01844931145160
Cl         -1.92871726152516   -2.84628671735236    0.77742176701716
C          -1.78819585943366    2.63474853645912    0.38744860630675
Cl         -2.83035083386203    1.55024127235795    1.32064672641250
Cl         -1.14304250853568    1.78322398371829   -1.02267933981876
H          -2.38828294528608    3.47860906790907    0.04247689116888
Cl         -0.47268464080480    3.23439670050305    1.40204312481594
C           2.05002884550557    0.52326913621162   -1.27122671280093
Cl          1.62705840292304    1.06039003429478   -2.90292783878655
Cl          2.22965524400080    1.91450181938876   -0.20114375615192
H           1.24192184005561   -0.11127914859684   -0.90041794567821
Cl          3.54741471846058   -0.41605098205678   -1.30366589045236
C           1.30191366580336   -1.25644067889098    2.05806243196992
Cl          0.03588303247126   -0.10444188087146    1.64011291444511
Cl          2.81601002961176   -0.39678409716685    2.37780578638241
H           0.99507832683579   -1.79297497181806    2.95751346364219
Cl          1.52306585724148   -2.42144653153966    0.74293051862713
