20
-65.156136088539
C           0.11961551943093   -1.95472543340329    0.65097445082077
Cl         -0.84048789834272   -3.38678282209977    1.03022218147378
Cl          0.77775424718591   -2.07522439020532   -0.98708507573567
H          -0.52169100353484   -1.07218519193024    0.70846421262563
Cl          1.43544930344180   -1.76961883951874    1.81900463635294
C          -3.64600620862440   -0.48050531148059   -0.69697985452836
Cl         -3.85083304874473    1.08588587184058   -1.49107353493418
Cl         -3.09478318784623   -0.25399408497855    0.96797572244543
H          -4.60770883130663   -0.99606114785696   -0.67590063553949
Cl         -2.48590639513187   -1.47378467478890   -1.59132891985377
C           3.43019843951265    0.22139112070867   -0.47608924355783
Cl          5.19659853421328    0.27221309828483   -0.54292334994389
Cl          2.74208830708893    0.61711643966507   -2.05482432577741
H           3.11095037713130   -0.78410796285956   -0.19302859184312
Cl          2.84027743990203    1.35317774547038    0.74254087267934
C          -0.45686396830201    2.25332639486401    0.62297613716795
Cl         -1.97752322672395    3.15227011450783    0.66013160693223
Cl         -0.40498398665956    1.19654342517962   -0.79180406850173
H           0.37538633920735    2.95651018296641    0.56065655222447
Cl         -0.27656758991671    1.29864673154415    2.10300431079004
