35
-88.654176127224
C           0.37807550113282   -2.71207657345923    0.19466027633827
Cl         -0.48129661142961   -4.25261360208385    0.06148636155508
Cl          1.97779790990572   -2.85141097135666   -0.54333662642378
H          -0.18961996598265   -1.94677824212876   -0.34581098725823
Cl          0.54061445414617   -2.24792309369416    1.89089826711914
C           0.02877486100143    2.48138415510577    0.52201903287374
Cl          1.07801330846880    3.14713798186547    1.78017783334511
Cl         -1.61310268081212    3.11934866777479    0.69391888915425
H           0.41847226680454    2.74671712001888   -0.46718783614012
Cl         -0.00519181979253    0.72052255942057    0.63899334256689
C          -3.42919850577005   -0.08673765402352    0.16416596700140
Cl         -2.65812065936127   -1.18509182081755    1.31621695139939
Cl         -4.63277710572004    0.92032904917296    0.98129194866766
H          -2.66992002529029    0.55953283661171   -0.28858931673050
Cl         -4.20243468165704   -1.02267526395563   -1.12083273860737
C           3.41105074098637    0.41368598765839   -0.26929529299088
Cl          3.21048376014717    0.09999464790860    1.45767016864335
Cl          4.89321469138455   -0.35271010371266   -0.86082452093044
H           2.55919512603543    0.00381914426478   -0.82417027673282
Cl          3.47939241927668    2.15353029665877   -0.56555321161627
C          -2.87076793251767    2.03585872049066   -2.89575090980112
H          -3.79447925148376    1.47941899067921   -2.74531958745631
O          -1.87133031877892    1.39976778547178   -2.12653673933226
H          -2.61638044776830    2.02877884809394   -3.95879348334248
H          -3.01705824151607    3.06734979532329   -2.56706419924101
H          -1.02399002036892    1.85981620930792   -2.27365990851001
O           1.48903635490574   -0.27424699259590   -2.57026691040016
H           1.98405930092624   -0.86284436210221   -3.14294915884324
H           0.62647464812350   -0.70094876602207   -2.41067046101767
O          -1.03383806741393   -1.19318825398090   -2.11453837190659
H          -1.70488301595468   -1.80408002084396   -2.42650417215468
H          -1.43466992077387   -0.30195002875168   -2.13893498271266
O           0.70424618960183    2.34508549486217   -2.48857600811241
H           1.34178018942738    2.92331911675339   -2.91130852860591
H           1.07716148290718    1.44433237848274   -2.53344785321799
