32
-83.567261054313
C          -2.93630254064095   -0.79514244927002   -0.83244202512787
Cl         -3.03236905107153   -1.92034549956978   -2.19113655131876
Cl         -2.87760704933402   -1.69335902754090    0.69024377846824
H          -2.01465049456590   -0.21196675005299   -0.93047220949790
Cl         -4.33132322665724    0.29380880092252   -0.85361154032802
C           0.51662570869999   -2.19754318843297    1.38771111804971
Cl         -0.26851625881751   -3.22468307353051    2.59497701202519
Cl          2.25571581491004   -2.50959509827754    1.36431718314616
H           0.11183302067523   -2.41985031957947    0.39363586912025
Cl          0.22952022781899   -0.49103191358343    1.75787073481645
C           2.77901268667675    0.92863705232943   -0.49909697663318
Cl          2.76942147706839    2.60477299973753   -1.07615135051387
Cl          3.39045944909508    0.84521295559936    1.15593350062371
H           1.75632272489330    0.53455228490870   -0.53959659125792
Cl          3.79025329069809   -0.05295954998037   -1.56239242399847
C          -0.79562092946954    2.42109183391324    0.47466105494304
Cl         -1.20591813296370    3.81370717914591   -0.53555382683639
Cl         -2.21572186967684    1.88813181374925    1.38614040551702
H          -0.46520266155763    1.60147921426451   -0.16984636774534
Cl          0.51249743266257    2.83770069548493    1.58783340126034
C           0.02294598859910    0.66207303336725   -2.86374910083921
H          -0.79702309477889    0.26781907922800   -3.46893420547080
O          -0.02491979751186    0.14568109782198   -1.54712005265578
H           0.97425912258146    0.42095852965319   -3.34430502085926
H          -0.07513266271406    1.74418351279866   -2.79161805759266
H           0.05394340456099   -0.83463085432651   -1.59996871515559
O           0.15114773650904   -2.54319002743699   -1.62254726123570
H           1.07337076908073   -2.83950750260751   -1.79359743713176
H          -0.42150977321271   -3.03130629864355   -2.21823080945743
O           2.74539531174664   -3.17077422874928   -1.85567758827841
H           3.00919764894112   -3.45803979333863   -0.97613659868530
H           3.23373093526098   -2.35940151876192   -2.03487725068223
