29
-78.480385926001
C          -0.54522224623663    2.33315173642373    0.63092816873251
Cl          0.67241709054363    3.53396641115499    0.17718067220163
Cl         -0.56336571048706    2.10373775791828    2.38198950262448
H          -0.29461346234036    1.38315948057063    0.15257444542245
Cl         -2.14052950126402    2.84502580553333    0.06134742615519
C          -2.86672010329457   -0.63383448774207   -0.46650026189274
Cl         -3.23732799966935   -0.27422149534504    1.22536630359636
Cl         -2.81740198225325   -2.38619599604452   -0.70684007398241
H          -1.88106865852890   -0.22610709770887   -0.71869265542304
Cl         -4.08038915540504    0.08451016265909   -1.53474196967736
C           1.01163918277144   -2.46994303727099    0.85420790258779
Cl          2.44543824412147   -2.63350882936578    1.87206839038706
Cl          0.03742339154059   -3.94629883879779    0.91355053055580
H           1.31780304645104   -2.29556077767278   -0.18043030720512
Cl          0.03798500996888   -1.09671383709697    1.39576847885301
C           2.78661627191746    0.71078000231398   -0.59982734687135
Cl          3.62465217385835    2.05150218380281   -1.39152993802278
Cl          3.54061536340174   -0.82742896786464   -1.05026362951792
H           1.74229374703836    0.68912423463651   -0.93268303967641
Cl          2.82885804392827    0.91099738137955    1.15796465953528
C          -0.33276349281567    0.95854185357429   -2.84822985651241
H          -1.22543145492567    0.59587138257914   -3.36319901618733
O          -0.09167702393608    0.21730015493218   -1.66601661341466
H          -0.48950034447649    1.99392635577600   -2.55099558810411
H           0.52315326460382    0.90579435348175   -3.52521753397832
H           0.05484821768436   -0.71773522662600   -1.91119944292735
O           0.11424622124980   -2.48533436345536   -2.14968269487266
H          -0.68172213264749   -2.85407558176691   -1.74675555614977
H           0.31276165034264   -3.01417673757777   -2.92571358853594
