38
-93.742024884819
C           3.43219092639080   -0.17442906301303    0.20821064179046
Cl          2.97156782467894   -0.24842211428336    1.91222321370523
Cl          4.76367164191338    0.96958940935281   -0.01860676407423
H           2.57777342252233    0.14981503108228   -0.39830537679466
Cl          3.92513444205025   -1.77985814393489   -0.34138900011138
C          -0.34587943691491    2.73621940054248   -0.04801782699072
Cl         -1.54708411116578    3.77521344129742    0.72914542491871
Cl          0.60842896074568    3.67648140291127   -1.20121713644664
H          -0.85250074658204    1.93603634854823   -0.59874417435178
Cl          0.72339543862225    2.02059899563970    1.16172053324208
C          -0.05714416917637   -2.82145710742995    0.49078680368717
Cl          1.27791696258356   -3.41384028004433    1.48904823764952
Cl         -1.60062974819699   -3.06936144174152    1.32379779805538
H          -0.07115010421306   -3.36184889871950   -0.46233289522864
Cl          0.16444468128256   -1.10595770522199    0.14991852955462
C          -3.29424392560657   -0.15283946085980    0.47414103444896
Cl         -4.64771728571302   -1.11842567478586    1.08101172749960
Cl         -3.90322872734371    1.23166538841244   -0.43990373246323
H          -2.68909997381687   -0.77337935092968   -0.19446511545836
Cl         -2.29898689139566    0.41257994450814    1.81937153220598
C          -1.69122839118181    1.47387303033016   -3.38546482930577
H          -1.49666267184932    0.94856341921427   -4.32432714149796
O          -1.11048702715940    0.79382747254146   -2.29121986365651
H          -2.76888573099101    1.58453103556096   -3.24870645165746
H          -1.23607782960550    2.46205377040232   -3.42725943042376
H          -1.52306255549604   -0.09315724208242   -2.21683597407803
O           1.60482663615959    0.60713888541862   -2.17350796737915
H           0.62975106495279    0.68359891743916   -2.20145737154762
H           1.95015675663864    1.43236628855547   -2.52204629763632
O           2.00806405465690   -1.94669919392843   -3.04076921989337
H           2.74871014108360   -2.23913182184610   -2.50043278465897
H           1.86580689333488   -1.01099739339437   -2.79703464384334
O          -0.16077880071957   -3.36905612364820   -2.53525870058617
H           0.64282196083429   -2.82144197823561   -2.73251719960928
H          -0.19617789105871   -4.03699964107861   -3.22203109627369
O          -2.21163333452020   -1.68478725467098   -2.06036485089232
H          -2.98066330441031   -2.04257895721717   -2.50782448391452
H          -1.47309603928469   -2.31098988719310   -2.22144812741712
