32
-83.565806114491
C           3.14432192210381   -0.73911644504865    0.54290744655955
Cl          2.52677467966410   -0.05401199146552   -0.96690130302022
Cl          3.35363481502602    0.54843530823966    1.73578723846703
H           2.41155861602663   -1.45806169278155    0.92889102776649
Cl          4.67649051978738   -1.57631297048049    0.25230363643143
C          -0.23437559032981   -1.84197268094555   -1.72476526950245
Cl         -1.83280320810981   -2.59234765987551   -1.81254442099059
Cl          0.21323363764991   -1.26563005261841   -3.33366709174035
H          -0.26398065100775   -0.99428004493053   -1.03001020604105
Cl          0.94137658180627   -3.03860892526253   -1.16875240759596
C          -3.00729124184013    0.19473868601080    0.70721665680535
Cl         -3.92208693473389    1.43058958518154    1.58631649701506
Cl         -3.03551690386660    0.52504183967757   -1.03386272761357
H          -1.96530259881762    0.20633603414493    1.05440374517243
Cl         -3.67156012068686   -1.41294815986190    1.03882176085762
C           0.26070833037674    2.38270418488147   -0.32429272692231
Cl          0.03757951106413    1.82808986717424   -1.99310792498556
Cl         -1.12852160288475    3.35386520546189    0.18131500360050
H           0.34465421014671    1.51997930321696    0.34343413259069
Cl          1.71952788546762    3.37111197567340   -0.21312256925721
C          -0.15527447562358    0.85641570181168    2.99219702360504
H           0.86398915377942    1.03264665387802    3.34289546999679
O          -0.15818492037628    0.15873306613672    1.76074751932689
H          -0.70109403033154    0.29877060032915    3.75427559479512
H          -0.65123227345687    1.81307063969784    2.82809897021271
H           0.27630436714343   -0.71272184368297    1.89761915919241
O           0.93995094261408   -2.30493836044664    2.09321245748577
H           0.20348453966655   -2.87722792249403    1.78707945377173
H           1.19328612574906   -2.63682190967717    2.95659074696942
O          -1.25834071150600   -3.65500319048607    1.32382984247888
H          -2.08127929675203   -3.14212734363046    1.34657889938423
H          -1.22119541429467   -4.09761552705599    0.44933781793652
