35
-86.722859592501
C          -2.45981030363081   -1.42127501290515   -0.27298326650045
Cl         -2.21223546405901   -2.93730215034465   -1.15570265517649
Cl         -3.73928356830931   -0.48612836042262   -1.05155061115599
H          -1.53386119046737   -0.83537715583744   -0.31232141946575
Cl         -2.89623253854632   -1.74812813294345    1.40704154442025
C           1.37916495752184   -2.38091846341420    0.24818777031678
Cl          1.96189504392871   -3.51300664499903   -0.97945341336942
Cl          0.25497389925797   -3.19120684684414    1.34416752297190
H           0.85907546219603   -1.55692271232405   -0.24905743259626
Cl          2.74154839424702   -1.72038212570103    1.16429316566832
C           2.92400074972586    1.21188656754359   -0.82504419573199
Cl          2.77005687220458    2.40085348975342   -2.12358970837042
Cl          4.47193462709202    0.36668399126459   -0.96889373756325
H           2.10281963605425    0.49338030473769   -0.91486724396329
Cl          2.80078044715814    2.01557407989459    0.74608616074053
C          -0.67406678345849    1.81333071573050    1.71492830403190
Cl          0.03112954509679    0.20290207932595    1.91948650677346
Cl         -2.42230134498773    1.67187030331166    1.51662942790817
H          -0.26265144108051    2.27122806628505    0.80968378977162
Cl         -0.29698476326480    2.82302931762441    3.11674342769381
C          -0.01706924466330   -0.39598497421575   -2.75744843625923
H          -1.02250102587201   -0.19646624078042   -3.13603798230193
O           0.08983147052229   -0.04235677329731   -1.39145149632463
H           0.71040231792892    0.15174826350335   -3.36177144345913
H           0.18740346746858   -1.46274645846885   -2.83348090373160
H          -0.09227787944452    0.92356055249468   -1.31227945491189
C          -3.84679685929541    3.48534771191735   -1.46729536449405
H          -4.84313578750205    3.37609565006552   -1.90077299651649
O          -2.93776777380991    2.57326130161389   -2.05333641819075
H          -3.90445071049259    3.34247775489462   -0.38565870451337
H          -3.47334606550876    4.48506217235278   -1.68139043689848
H          -3.24731043078530    1.67458996051642   -1.87077401111637
O          -0.37043541066502    2.60777401196607   -1.21352111529736
H          -1.29524109420979    2.70905877570593   -1.52497069462315
H           0.18568866657055    3.12921029328272   -1.79805712584771
