32
-81.636534477942
C           0.95033194939839   -2.10447787230628   -1.36998449182596
Cl          0.48454082111243   -3.18223233192920   -2.69938085642868
Cl          0.56041345409966   -0.43606129476802   -1.78743283116339
H           0.38445172195798   -2.38838530296561   -0.47547656967979
Cl          2.68147136573659   -2.25233484611470   -1.02986582985721
C          -0.78697426845651    2.44795352653647   -0.49733521907525
Cl         -1.47334066807700    3.77431994314097    0.44721649582310
Cl          0.70404894773321    2.97966531251531   -1.30111240851405
H          -0.55098919647596    1.62450115110581    0.16682129298333
Cl         -1.95304438133751    1.88090804747476   -1.70775094702035
C           2.66649553955975    0.92605006696298    0.91829931499536
Cl          3.31319767617421   -0.30684222110950    2.00679114961707
Cl          3.71235528473144    1.09880872285926   -0.50049126747000
H           1.67216955793664    0.61893228051848    0.59981740850553
Cl          2.53492171642404    2.47614708562255    1.77467921462060
C          -2.97525523244121   -0.90265741168499    0.25860021438062
Cl         -4.41556776248394    0.08479328806840    0.00492013516923
Cl         -2.48315140726575   -1.70149856459703   -1.24859604553271
H          -2.14748466346660   -0.27133914217153    0.60177540888978
Cl         -3.28286310570309   -2.11644963002727    1.50834719943937
C          -0.41600483946413    0.55468771302217    2.83863004157787
H          -1.24156560953933    0.06132542033614    3.35524797605836
O          -0.29296563828756    0.07352683994680    1.50997578695371
H          -0.61914437938972    1.62302986393418    2.77430700665395
H           0.50950931597286    0.40143019042025    3.39684943624273
H          -0.09394991108816   -0.88423142955802    1.55028130844587
C           0.87156149572469   -3.34959865492315    2.33051298895978
H           0.65072066052200   -3.24854200402873    3.39626908312296
O          -0.09901326771089   -2.68137880710030    1.54313195948975
H           1.82777724491623   -2.88052895023985    2.11496785324027
H           0.92254915064516   -4.40866386121749    2.07115795359191
H          -0.96638789379468   -3.07718314377532    1.70291342128177
