35
-86.721512087542
C           0.47665947105023   -2.53486102810682   -0.23350669318136
Cl         -0.87551495820629   -3.51402255499043    0.35368519456844
Cl          0.12966546886489   -1.98231823510913   -1.87893968845763
H           0.58120770984995   -1.65982088329784    0.42084254352704
Cl          1.97228116898225   -3.47159206386097   -0.21089900486425
C          -2.93342538965556   -0.50670347845799    0.57530856064259
Cl         -3.70201090042223   -1.75875577714181    1.56314348659284
Cl         -3.71106438827646    1.05399551468761    0.87275132577893
H          -1.87771202026657   -0.42195056736383    0.85779046736874
Cl         -3.04958158634975   -0.91823560316753   -1.14317850048978
C           3.25353795151974    0.72587353556108    0.49221175528483
Cl          2.71500516128887   -0.05026819476726   -1.01173094196253
Cl          4.83914359832088    1.47600085060345    0.24619904270166
H           2.52775602480854    1.49397426559895    0.77656158443861
Cl          3.34307937882132   -0.48321326064854    1.78032739813169
C          -0.11400024391697    1.61293813204089   -1.80334092786023
Cl          0.26543296829131    1.01425674158741   -3.42155330651185
Cl         -1.76776396986478    2.22817275384020   -1.75457758392130
H          -0.02784672324021    0.79038804185901   -1.08951811521754
Cl          1.01488455712979    2.89012045155614   -1.34599211649535
C          -0.18956165127783   -0.70501860652216    2.95092517655732
H          -0.80890532748487   -0.05466351179767    3.57560567173866
O          -0.06527359135732   -0.17533926703692    1.64042368885419
H           0.79126986141855   -0.83185224631355    3.41627191903979
H          -0.67018154756068   -1.67694938794029    2.85951032791456
H           0.36601137775489    0.70573305843576    1.70485231124432
C          -1.58992132673978    4.75160740188788    0.82718051236759
H          -2.58369176712060    5.13961859810702    1.06449135136836
O          -1.40385227437205    3.46299368497459    1.38372425324591
H          -1.45130474777685    4.74030697543163   -0.25697080674483
H          -0.83993301264646    5.40132223304719    1.27637188912867
H          -2.04607787602548    2.85876381281065    0.98547101948728
O           0.99734157944684    2.32090960310888    1.86242462126303
H           1.19718268431053    2.54830828378894    2.77476970390766
H           0.20581693156357    2.83705406864627    1.60819721467114
