32
-81.635872763897
C           0.72181298867829    2.29885869764635   -0.23349101946414
Cl          1.43006269223956    3.80699750623765    0.35228913700193
Cl         -0.97327087638353    2.54758130800257   -0.68692820061239
H           0.75883148333274    1.54949918549420    0.55903633008075
Cl          1.63403853915886    1.68982562838464   -1.62330622809250
C          -0.68334546311769   -0.95628221532205   -1.83576604939360
Cl         -1.87197968731289   -2.24084718075146   -1.59700606332735
Cl          0.92194130606916   -1.65776001576893   -2.08984125596614
H          -0.65139843086854   -0.33817732529287   -0.93622132759053
Cl         -1.14310831317580    0.04680265057707   -3.21604355263760
C          -3.10671993059978    0.19787569983118    0.96594742609045
Cl         -3.73410712157667    1.38461898805436    2.11803902987678
Cl         -3.61987017951163   -1.43039434609599    1.42856816728861
H          -2.01148583952846    0.23164527614013    0.97960437035822
Cl         -3.68023747916553    0.56787160263039   -0.66768144864113
C           3.06455274537817   -0.67145362048118    0.67095004421658
Cl          3.45214390403663    0.92250656110110    1.34052596037613
Cl          3.96680570673928   -0.94011829126433   -0.82443331132773
H           1.99203356923935   -0.71016443836242    0.45739289459796
Cl          3.45123743297290   -1.92862529153477    1.85297560259290
C           0.32107086641267   -3.97616798190870    0.84478924089053
H          -0.00970819363203   -4.98712921681679    1.09262370068556
O          -0.58610108766710   -3.01034697137761    1.34116167084950
H           0.43924611415801   -3.88824386613672   -0.23776770746640
H           1.27693251881352   -3.78556510362315    1.32864032522129
H          -1.44902315054395   -3.14623658724999    0.92998088992455
C           0.07909198006106    0.00228592377784    2.73430752822441
H          -0.77403434000761   -0.36499337781474    3.30777455592407
O          -0.04257512672791   -0.34974021206336    1.36513643784141
H           0.99862658377343   -0.40557433998589    3.15964361491983
H           0.10818343187862    1.08969312887581    2.79571046710880
H          -0.16750055631478   -1.32451883482167    1.33884574486667
