44
-98.123344876741
C           3.38734653443049    0.45739186542559   -0.18990912447393
Cl          3.05067084258639   -0.00781427538406   -1.86051761400248
Cl          3.37192459622993    2.21716099960905   -0.03581028487215
H           2.61326058408160    0.05153795393139    0.47137823607660
Cl          4.96034033363957   -0.17426099836676    0.31661940363220
C          -0.05682345836270    2.40187855662090   -0.95807463556969
Cl          0.82548686037262    2.82490542598998   -2.42870376475102
Cl         -0.11911675574665    0.64593353578764   -0.77655134654172
H           0.45558781221665    2.81083782237352   -0.08174831213764
Cl         -1.70050125719418    3.05005825961005   -1.01865772241306
C          -3.57123726118782   -0.05874497173601   -0.26695816116401
Cl         -2.74533868345933   -1.44357436146980   -0.99268974420628
Cl         -4.71523854478701   -0.62282807170555    0.95763295310091
H          -2.83343543049786    0.58793519064432    0.22019347463962
Cl         -4.42460764262506    0.86349759429544   -1.51144214278939
C           0.37831506482101   -2.78317342133934   -0.26560258167343
Cl         -0.36672056018002   -4.36470731634200    0.00253734285778
Cl          0.39599006571193   -2.40087176637470   -1.98932998770777
H          -0.19971637735245   -2.02452775668911    0.27305059371556
Cl          2.02795937073553   -2.78301412692065    0.36635693039760
C          -2.82582220165790    2.05293097608285    2.82989903560241
H          -3.73236240814304    1.44962826972087    2.83335961140093
O          -1.91531000386053    1.43323147735003    1.94540295852950
H          -3.07018283641062    3.06320541525763    2.49318165892065
H          -2.42170966261161    2.10085183628893    3.84497382872856
H          -1.07780783552762    1.94127100184716    1.94829854438016
C           2.38618826770602   -0.55390399274347    3.30309439976044
H           2.63769792798148   -1.59800545718019    3.10515583351926
O           1.59920386028345   -0.01780185431896    2.25956225243804
H           1.86975701383089   -0.48275351779165    4.26456868695295
H           3.30426776507463    0.03051731280352    3.34498183490049
H           0.76485436452098   -0.52972444460455    2.19256247775158
C          -1.59154155944698   -2.00475100797678    2.84573242038430
H          -2.59885957123650   -2.18546036547903    2.46509517093368
O          -0.89129691220988   -1.10061579131643    2.01479634653067
H          -1.65717066501058   -1.62935954396565    3.87074702997849
H          -1.03544408618289   -2.94102311130838    2.84137740933399
H          -1.37080497803314   -0.24532970476990    1.99946210159977
C           1.21875193919516    3.46936756859702    2.86594793957238
H           2.26211659573100    3.62950782303324    2.58437241803656
O           0.60877064071748    2.51836830746123    2.01940965256934
H           1.17213407021660    3.15668064691564    3.91308816461449
H           0.67031213707713    4.40301530024266    2.74779670561759
H           1.08466068318860    1.66477359290949    2.10885036687081
