23
-70.236591976050
C          -0.01856797208810   -2.50557966280769   -1.46545404478081
Cl          0.10758893481109   -3.24059573762159    0.14206131237975
Cl         -1.56059070346103   -1.64883538876531   -1.62661611998845
H           0.02561931138761   -3.30083682472262   -2.21220550424659
Cl          1.33072490625013   -1.38733835219861   -1.73428299268839
C           3.18445644140316   -0.01945527257085    0.82585098669971
Cl          2.95465853772073   -1.66540509569748    1.44820056109110
Cl          3.84952016731055    1.01744824946254    2.09316895684695
H           2.20573132966704    0.36424928362978    0.52852907196071
Cl          4.27286325554002   -0.05412923765357   -0.56447283861727
C          -3.06025942749439    0.00460497179704    1.03760661742814
Cl         -3.60936523574491    0.66697048450652   -0.51318128606399
Cl         -3.69395046537727    0.97502852010401    2.37948735699153
H          -1.97378051441457    0.03462058083509    1.05825364776037
Cl         -3.59598752099539   -1.68040313742603    1.20598898236001
C          -0.19956296740219    1.79076419012751   -1.13848767982866
Cl          1.51627027712095    2.20241080184876   -1.34537877513059
Cl         -1.01245994059005    3.04760407636386   -0.19427785969380
H          -0.26003661309483    0.84564750171284   -0.59287338588478
Cl         -0.96993054011521    1.61337932185488   -2.71591208379972
O           0.04681767585808   -0.20339486073645    1.41054831214531
H           0.23137987300753   -1.15789856069640    1.46051317757408
H           0.24270215639238    0.14583218254046    2.28705526157637
