23
-70.237517095531
C          -0.15661668315658   -2.63303927674417   -1.32546615616960
Cl         -0.53962576258746   -3.28922501897061    0.27203702439727
Cl         -1.35085906135760   -1.41491483956883   -1.78593968824095
H          -0.19437239938961   -3.44556790189725   -2.05422203045960
Cl          1.46790370235704   -1.93173973917450   -1.32016511046066
C          -3.37590551340275    0.28968857783453    0.77237571193836
Cl         -2.99314276737120   -1.32970233250726    1.37920252766858
Cl         -5.13276656924003    0.48628412605294    0.64751999033740
H          -2.92472193412841    0.41722486378850   -0.21508070728781
Cl         -2.69876280545629    1.51776093733038    1.85502724075475
C           3.21786918386437   -0.20282586898843    1.12318815096036
Cl          3.94654640049686    0.87629147524840    2.32367192951596
Cl          3.61024073111227    0.36735771399097   -0.50996308724889
H           2.12944911994748   -0.19973726151768    1.24721613376544
Cl          3.81738257850813   -1.85474682862982    1.34467887479579
C           0.27023950915725    1.57679181348925   -1.23757302710070
Cl         -1.41137423262065    2.03529491717365   -1.54997704529350
Cl          1.03833875250485    1.09094984509769   -2.75174712675992
H           0.27674825080597    0.73955822989131   -0.52824612799695
Cl          1.13491646341008    2.93559244940022   -0.51274890130057
O           0.10396510585745   -0.13879210622732    1.26790671873392
H          -0.32447269116210    0.49197255222251    1.86267702523822
H          -0.36639228681229   -0.97793461651144    1.38947360693536
