29
-80.410413628941
C          -3.26940697168570   -0.11112432907314    0.85639347610903
Cl         -3.66206412170038   -1.79990781358173    1.19526549416377
Cl         -3.96157822994620    0.92282981679414    2.11609799210081
H          -2.17576140496692   -0.00059063846961    0.86167080857020
Cl         -3.91218739127240    0.34081076541048   -0.72850409665074
C          -0.05372656755521   -1.47132713171131   -1.47833652333359
Cl          1.06498273644168   -2.82043421361287   -1.23051813990325
Cl         -1.68592240827530   -2.09314815553505   -1.76914617725521
H          -0.06930582840943   -0.84873526571427   -0.57411816115661
Cl          0.47919526233538   -0.49425303016682   -2.85607915108980
C           3.13859921680382   -0.63550188741027    1.23379997530288
Cl          2.99872544505977   -0.16067918370998   -0.46448544870098
Cl          2.82034264925105    0.76625776530989    2.26890241992208
H           2.39582906889129   -1.41106091254122    1.45424707601199
Cl          4.76179079522199   -1.26707158780415    1.54732188139260
C           0.49628093819535    2.48966661818022   -0.78241556986621
Cl         -1.16468258074072    2.03614129871867   -1.17327678993245
Cl          0.56792901360168    3.16819972950105    0.85136864124883
H           1.12560024951377    1.59687204556906   -0.81626176329643
Cl          1.10344206675096    3.66640243720287   -1.95532032693069
O          -0.24773358642768   -0.02723698305935    1.20075743834117
H           0.08214664747291   -0.79161728743979    1.71560895428174
H           0.10215394329101    0.75908374904393    1.62898908976875
O          -1.03194726072337   -3.84929347394599    1.14617155513616
H          -0.79991279848062   -4.04979281629294    0.23504031070965
H          -1.88421707885877   -3.39855277640605    1.12599046937194
O           0.74350882538233   -2.25267814733437    2.37394767730052
H           0.16733137373323   -2.91302265387701    1.92795959008981
H           0.68813425133193   -2.44408739827161    3.31207188003182
