35
-90.586946431448
C           0.21114858622788   -0.84023865569195    2.18772782720630
Cl          1.52271812448005   -1.30508649857993    3.27358385864623
Cl         -0.68359935552192   -2.27478335382367    1.65679546370931
H           0.62779456143249   -0.34232978890120    1.30776916082959
Cl         -0.88587849288360    0.28817356862697    2.99365265080541
C           3.33474990397537    0.81287264489975   -0.17606783424677
Cl          5.08771299000775    0.90984414557372   -0.41212750291415
Cl          2.79107312104540   -0.86274571598697   -0.36737086953684
H           2.83558028758613    1.44726705675740   -0.91695895017525
Cl          2.92085416191524    1.39669730695025    1.44051005985127
C          -0.27138976749660   -1.87524087535401   -1.74195895988074
Cl          0.77310356015195   -3.27596983859642   -1.46671527743133
Cl          0.06613896905760   -1.16850879824904   -3.32374881466267
H          -0.06918001863011   -1.12116366281661   -0.97708613739768
Cl         -1.97118995650361   -2.35330220431115   -1.64335145611925
C          -3.01175088129714    0.64019363459951    0.13877371360979
Cl         -3.49965235413519    0.80982030143382   -1.55024955090119
Cl         -3.45995065982838    2.10264170654139    1.03771617709577
H          -1.91530342899306    0.53654781498273    0.17292162895204
Cl         -3.78354174227322   -0.77911506260287    0.85981503276784
O          -1.69253374405737    3.90398054387160   -1.15078588809632
H          -2.49121917425769    3.61890874986112   -0.69639072100304
H          -1.00103009295906    3.95489831434738   -0.47239226396404
O           0.58708985578933    3.50672233203764    0.43356691063947
H           1.12988930946129    3.64139237432194    1.21536062456311
H           1.19164012198724    3.46010931334604   -0.33531785441527
O          -0.48255908951328    2.09976285256369   -2.68700179687736
H          -1.02208890432577    2.80556005210040   -2.25225868122077
H          -1.05259864698333    1.63522578921869   -3.30293950089238
O           1.94700369484282    3.02579498986799   -1.89300428779656
H           1.15813831952702    2.65085774507561   -2.32874996984129
H           2.28165279903697    3.70832033026372   -2.47760250245559
O          -0.04428119185114    0.89778166046457   -0.27227498790816
H           0.12415601999032    1.73049524754226    0.20151534311671
H          -0.15177591240092    1.17854087393445   -1.20143143191560
