25
-81.453256394522
C           0.00002967116325    1.71462385142710   -2.49211130544866
Cl         -1.45163230178548    2.52364457980570   -1.88565732382402
Cl          0.00001526516033    0.02434719747495   -1.99583664176659
H           0.00002621828622    1.75232488221859   -3.58279009996285
Cl          1.45171080707153    2.52361684353024   -1.88566654423838
C          -0.00001763968896   -3.01548430268767   -0.23967550768988
Cl          1.45165229714299   -2.89456331830852   -1.24347620906337
Cl         -1.45166628517266   -2.89452585858717   -1.24350240625745
H          -0.00003491356225   -3.97902896596828    0.27275172372060
Cl         -0.00001188700054   -1.74087092287753    0.97636945211482
C          -3.01655858019710   -0.00002916570069    0.00038196759466
Cl         -3.58436864651069   -1.32252507889629    1.02478330461838
Cl         -3.58487020895888    1.54812470429988    0.63365929469583
H          -1.92450037367077    0.00011539711418    0.00006101020494
Cl         -3.58532551386045   -0.22591014944064   -1.65680639431471
C           0.00001213354139    1.30100784983780    2.73088510033623
Cl          0.00002154937380    1.71613547931223    1.01885696419860
Cl          1.45164601704711    0.37133021275943    3.12842963872124
H           0.00001659870563    2.22680323892686    3.30872990476841
Cl         -1.45163828417076    0.37135149820620    3.12841873702650
C           3.01659106558462   -0.00008131275618    0.00040367163573
Cl          3.58490161954573    1.54806058498844    0.63366772295472
Cl          3.58436293079602   -1.32256826785956    1.02481104456634
H           1.92451630137358    0.00007668171258    0.00007828550204
Cl          3.58534441974486   -0.22598037970387   -1.65677017086101
