25
-81.450878317845
C          -0.28820603657742   -2.91614149010697   -0.67979119847006
Cl         -0.70885283500052   -2.55850960934575    0.99988436703892
Cl         -1.06681094768923   -1.76835819807055   -1.77555094536310
H          -0.63478833171681   -3.92792739674870   -0.91541525065768
Cl          1.47071621756604   -2.86648877587516   -0.89117527615684
C           3.24502005120069   -0.25996826203259    0.76697760892100
Cl          4.86984015200943   -0.95113557744815    0.68190483754555
Cl          2.30405757560743   -1.05354472589501    2.03235645258154
H           2.74670823092550   -0.40928368405075   -0.19493817155418
Cl          3.33907578548291    1.47722700098175    1.08264063896119
C          -0.21457215179698    1.54480436176304    1.61826925011524
Cl          0.06686867551310    0.65570763324867    0.12524022274879
Cl         -1.36136815429889    2.86163784260980    1.33685525283223
H           0.73749150349153    1.96795364411641    1.94461426572125
Cl         -0.81891485265885    0.45139380874551    2.87345633858899
C           1.20541325198030    1.57955109218729   -3.01229636529407
Cl          1.83097845229877   -0.02026229998330   -2.62236946343383
Cl         -0.56595206573610    1.54749659380903   -3.03230634623578
H           1.56675535322055    1.85887496237055   -4.00797134639960
Cl          1.79161071624365    2.76197643830393   -1.83632032226140
C          -3.34707611789342   -0.20773682365153    0.35892144273164
Cl         -4.26949623212178    0.60799691091490    1.62664465288175
Cl         -4.15980383467701   -1.70109734303800   -0.12851090826841
H          -2.36072580286361   -0.46873401101847    0.75110793388716
Cl         -3.15481767357185    0.85673560250573   -1.03576325396256
