40
-104.949936010282
C          -1.62968672825213   -2.33685497952784    1.43020791691137
Cl          0.02586949657982   -2.88626191473415    1.71328820125847
Cl         -2.64517384104422   -2.70760630660541    2.83100058818095
H          -1.62043026599262   -1.25447382468812    1.28248298444634
Cl         -2.28585644040077   -3.10707411474301   -0.01557999158275
C          -3.07044300827286    1.14677635236020   -0.72910154592384
Cl         -2.40416435715011    1.26447544787313    0.90656828938442
Cl         -3.99052053140561    2.60979510920273   -1.10016015894394
H          -2.24650754403197    1.06250491292354   -1.44603795526431
Cl         -4.10898780634597   -0.28037121851114   -0.85283909920269
C           3.62065492629828   -0.31100523914357   -0.47023203651868
Cl          5.22788883446508    0.21854930038817    0.04896920514493
Cl          2.93264783891007   -1.42671426043829    0.71569001559251
H           2.97763417041480    0.57074720886962   -0.57018499804075
Cl          3.73107560888409   -1.09522315880811   -2.04981092580300
C           0.16538312502740   -1.27247379040805   -2.13863808357783
Cl          0.75896795516319   -2.88548408878112   -1.73877926434889
Cl          0.10747670285402   -0.27429418983657   -0.68149674819241
H           0.84310123690864   -0.78542263684440   -2.84751887686637
Cl         -1.44881031289139   -1.36963240645087   -2.85317395848509
C           0.81492010916378    1.93019709518127    2.00305292866197
Cl          0.14674890289890    3.11891780735878    3.12955785911439
Cl          0.46616963769690    0.29425693788677    2.56855230844189
H           0.35997268928353    2.07996396453190    1.01772399193864
Cl          2.56262831956163    2.15148469281746    1.85909081992639
C          -0.54424673108845    4.41968048500257   -0.48601151983569
H          -0.36999896664298    5.08097168893970   -1.33914625540304
O          -0.01505411917332    3.13096057123062   -0.72347380242898
H          -0.03414787273054    4.82004831272269    0.38878012238329
H          -1.61585066353866    4.37069034566111   -0.28311600488848
H          -0.46815632165011    2.74061858415168   -1.50005029699310
O          -1.00437564431487    1.93999738338581   -2.97045773221887
H          -0.16678928303558    1.56422936871749   -3.29664373967561
H          -1.48225976319493    2.26133909542314   -3.73718073001874
O           1.51785995243799    1.05818181331877   -3.63969328981544
H           1.96549899810324    1.49327839536010   -2.89012553097140
H           2.15968430690041    1.01506308231183   -4.35061705605864
O           2.49412321241967    2.38734827589409   -1.45938062679380
H           3.17264908628012    3.00206535190147   -1.17430308235810
H           1.64272409537069    2.72242023246271   -1.11311188504454
