40
-103.017469456616
C          -3.51540835950487   -1.96042503122832    0.80583772584545
Cl         -2.51448195005568   -2.51865982987551   -0.53790874914141
Cl         -4.56071632429331   -3.27483230296697    1.37173521104698
H          -2.85493076990823   -1.65240891656112    1.62584560703001
Cl         -4.48745701924944   -0.57174477076277    0.30236743012147
C           0.44496640745538   -1.00410672066856   -1.90253330962713
Cl          0.20095222358990   -0.45365820181730   -0.24725260604881
Cl          1.19991065192818   -2.60149876500623   -1.89572212861308
H          -0.53047324750126   -1.06748615662937   -2.39124222544852
Cl          1.45870082646283    0.15169098301996   -2.78327978280856
C           1.19614012979600    2.24211149240511    1.47259441421424
Cl          1.97736228414733    0.93632490513537    2.37241506647822
Cl          2.00152261931784    2.46423543276806   -0.08756692427879
H           0.14459782657881    1.96660431475645    1.30357943821941
Cl          1.25918974536301    3.74547610436007    2.40325722967321
C          -2.38896401490697    1.66112082313622   -1.40670911209382
Cl         -0.94495646532921    2.53342609853120   -1.93527331892583
Cl         -2.71514965012162    0.31907822610892   -2.50829060298633
H          -2.21379863633301    1.27538706840339   -0.39349830270752
Cl         -3.78274374660419    2.75014911465745   -1.37331178399696
C           3.90119581344495   -0.56523641623794   -0.19376158515559
Cl          5.08888201932698    0.45158121165753    0.63611050581052
Cl          3.50386703742924   -1.96574386482476    0.79836726220233
H           2.98932178344102    0.01724177288940   -0.34935425412242
Cl          4.51629075801831   -1.10484748407557   -1.76401505364413
C          -2.58200431890093    2.26797687461971    2.25448446262456
H          -3.59992792557129    1.88097712598411    2.33931621789507
O          -1.74320594359058    1.36160236591646    1.56972911678367
H          -2.59902601871446    3.18718291497034    1.67094464322886
H          -2.19431589559364    2.48929292103317    3.25311562427819
H          -1.71236096704329    0.51320316084982    2.06384820753272
C           0.42645033744635   -3.52510467044933    1.92707431591783
H          -0.36004898712357   -4.02509996729836    2.48955600963641
O           0.69846128324024   -2.30734161140489    2.59884657321863
H           1.31407168740563   -4.16485827192178    1.89805186160630
H           0.08192661858012   -3.34690742356637    0.90340594793302
H           1.41208928884602   -1.84900020997393    2.13366420300182
O          -1.61668674439690   -0.98642317238599    2.97170732441243
H          -0.76832464650834   -1.46559769546202    2.81061459549501
H          -1.76407238703274   -1.00225042981138    3.92184756017564
