40
-103.018045727983
C          -3.46747335767960    1.94870619453083    0.88286766168691
Cl         -4.51791260308040    3.24796689975568    1.46974271657223
Cl         -4.44407990290732    0.57787969316458    0.33754339619040
H          -2.81379374519449    1.61674370667146    1.69846294057864
Cl         -2.46962252716559    2.54356612176267   -0.44816762875110
C           0.43516501201501    1.08463858046424   -1.82439927138576
Cl          0.20265839465477    0.49158887486300   -0.18001897693248
Cl          1.21433681511255    2.67001227179149   -1.78903328502635
H          -0.54565912961218    1.17379700425327   -2.29725865954424
Cl          1.41876463829464   -0.06796333180812   -2.74068202211982
C           1.18118153794645   -2.30285988304501    1.40256919734315
Cl          1.95977826999037   -2.49716061919974   -0.17409116868135
Cl          1.29865450161680   -3.80904545106134    2.32292256882914
H           0.12291417505603   -2.04135728279467    1.26017544975563
Cl          1.96006510948488   -0.99226132584929    2.29597499322166
C          -2.40492754200586   -1.64948246813278   -1.41532646745842
Cl         -3.80348635045219   -2.73293251645973   -1.42687311813777
Cl         -0.95251315029718   -2.51936094110328   -1.92569019760477
H          -2.24592635038561   -1.27734670946682   -0.39480563817640
Cl         -2.70035416059606   -0.28850469931016   -2.50244270462967
C           3.89048189718292    0.51220740500895   -0.19482586564608
Cl          5.09009868522394   -0.48696808450080    0.63579360001304
Cl          3.38945556676731    1.83999800369983    0.84880542049915
H           3.01742760843418   -0.10456445882064   -0.42161250262911
Cl          4.55420751201239    1.15527057714842   -1.70424784102358
C          -2.56761095620698   -2.33054744857556    2.19037436745583
H          -3.58132318896450   -1.93511605464669    2.29323390386051
O          -1.72417941878884   -1.40305605743354    1.54009003160213
H          -2.59701582615294   -3.22759186369336    1.57343268191157
H          -2.17987067825061   -2.59135044973584    3.17888651550837
H          -1.68289436494532   -0.58864746510531    2.08488502391322
C           0.46682695437131    3.47927826433103    2.00139080091599
H          -0.30566803627686    4.02901691506953    2.53594118000685
O           0.64487835336912    2.25342808735805    2.68547051256104
H           1.38905997766528    4.06291592272712    2.00153845217620
H           0.14539081584174    3.31337760874686    0.97069594475068
H           1.35124021918609    1.75786394590422    2.25006293280979
O          -1.61608417524685    0.85195821958986    3.08236539033211
H          -0.78586993541649    1.35290883299763    2.92302109459975
H          -1.69655231902945    0.77101890146598    4.03490147617984
