46
-111.263207463955
C          -0.04906757142318   -0.42745860706408   -2.22836062251358
Cl         -0.47446062178846   -2.10281570961731   -2.59082793146081
Cl          0.05107812808512   -0.20007540817044   -0.48153130728986
H           0.93084532197311   -0.20717575983933   -2.65638920423772
Cl         -1.24392267321214    0.67698376877693   -2.91202586691436
C          -2.54471541309501    2.27305850832080    0.17404748057773
Cl         -3.16798570114237    3.16638758716776    1.56557608258435
Cl         -1.14588298207261    3.11612658798547   -0.49791285051284
H          -2.23693050437649    1.27853728433882    0.51416876890372
Cl         -3.80434217488264    2.11305663042386   -1.05751712125312
C           2.18394465051319    2.57007271271721   -0.02652018280724
Cl          3.62486460273935    1.70603374138854    0.51606337098595
Cl          1.94808146173461    2.31358698586994   -1.75758775136063
H           1.31603471054356    2.18333294635156    0.51954158826653
Cl          2.35085497756196    4.29889655146332    0.30799413730716
C          -2.65295444782462   -2.52693382214840    0.16391344302919
Cl         -3.65865617723996   -2.69073817761147    1.60969957302862
Cl         -3.21682070567204   -1.15305381633708   -0.79111477951167
H          -1.61984242205142   -2.35085946168452    0.48266330671535
Cl         -2.72845298856460   -4.01506470887936   -0.79264129020778
C           3.08543694682620   -1.86560599040240   -0.12671785578610
Cl          1.89519145663181   -3.15572086662074   -0.32555720568791
Cl          3.32855894517808   -1.02635810238315   -1.66281776743890
H           2.70969287516490   -1.15346228225824    0.61828471427649
Cl          4.62181354111425   -2.53750252500828    0.43883285635627
C           2.83870018023212   -0.51055355207419    3.42560271664468
H           2.32945979955966   -0.37334121966293    4.38348388493056
O           1.91828334274003   -0.51597131236947    2.35386532811292
H           3.58264611405290    0.27886530759547    3.29697312829390
H           3.34188551257492   -1.47652988338678    3.42268320742859
H           1.44426204298582    0.34402703194028    2.33842120225058
C          -0.19066000456246   -3.28519841960322    2.94418001130945
H           0.08291683331579   -3.03102479747968    3.97190377755516
O          -0.29737743985933   -2.12765575524248    2.14213202295080
H           0.55091200156317   -3.97534614659014    2.53493247544826
H          -1.16639968743067   -3.76853656091335    2.94423559316229
H           0.56271599020308   -1.65884801419023    2.15573372819983
C           0.29296163665527    2.76862549554048    3.20040221142193
H           0.10805794537301    2.41831067492882    4.21939866183697
O           0.32325941860862    1.68994915043352    2.28697032814449
H          -0.47740866985135    3.49139036717776    2.92492061568926
H           1.26775918295609    3.25236595142567    3.15840150808568
H          -0.54167358719780    1.23306420012626    2.31057313964427
O          -1.89201134107790    0.09137835413269    2.30096510127688
H          -2.72774364457402   -0.06703024072893    2.74520517332455
H          -1.41640218327475   -0.76100224145720    2.28490155786598
