31
-91.618032919072
C          -1.35396003234418   -2.24774286964659   -0.37381075517084
Cl         -2.74491578760963   -1.54863269254072   -1.22461357084735
Cl         -0.58738690524159   -3.49141240341091   -1.36639989339692
H          -0.63327978308358   -1.45266379031095   -0.16364819928770
Cl         -1.88823869732484   -2.94164974808280    1.15924349234828
C           2.77683899998909    2.67515974721260    0.73554535706876
Cl          2.59071124946796    1.85441531977397    2.29343454708866
Cl          1.22077920917764    3.34387214912320    0.20428457546717
H           3.48573154819191    3.49682525041074    0.85170817956276
Cl          3.40107113849425    1.54775926040557   -0.47789315608519
C          -2.97368168857977    1.11751214577819    1.03494479950828
Cl         -2.23415312638086    2.59872296505031    1.66277621079729
Cl         -4.30777143336855    1.51068246798000   -0.05541445674359
H          -2.21195587592678    0.55814185521271    0.48462134438458
Cl         -3.55544025071583    0.11804079837776    2.37143923834770
C           2.43295637489555   -1.55211152683658    0.68256829940974
Cl          4.07201335216292   -1.37514822529337    1.31382572216577
Cl          1.64720557371536   -2.95959367046723    1.41129037819955
H           1.84222003856888   -0.66214492221408    0.92859461265249
Cl          2.46531245347835   -1.73250102611265   -1.08238975506308
C           0.23209331756680    0.91531588467921   -2.22881978443635
Cl          1.30895212419353    2.00106483291809   -3.11241021662690
Cl         -0.05942007385103   -0.55219447919817   -3.17055348216352
H           0.69595560641420    0.63762741133661   -1.27948270827770
Cl         -1.29942676799119    1.73149670181852   -1.88603873873629
O           0.02860389843055    0.30290165114853    0.87853423935436
H           0.05390627669235    1.25580667727762    1.01335317609450
H          -0.12898532148745   -0.07706827553123    1.77103017581144
O          -0.47025038434788   -0.87091315315104    3.24438479825602
H          -0.24164340701683   -1.80179969391517    3.16485146391663
H          -1.41929240793752   -0.82577721219796    3.40093547347719
