34
-96.702573396623
C           0.02429375250617    1.19995626199009   -2.15612465982202
Cl          0.09317261145284    0.16305920731813   -0.72674148901600
Cl         -1.58959183963747    1.11726222298041   -2.87110502338672
H           0.76633697664870    0.82904957339406   -2.87185808029362
Cl          0.41043103373877    2.86208720138062   -1.69913382765475
C          -3.29478357352550   -0.96172476354051   -0.28928582126384
Cl         -4.38645080546799    0.15895966611291   -1.11503803201520
Cl         -4.18085085754432   -1.91550083660692    0.91000754949084
H          -2.51066928249764   -0.39384927641933    0.21773903519591
Cl         -2.53673293748824   -2.02833814353566   -1.46024951921228
C           0.62055319358486   -2.71992333399069    0.93755878053125
Cl          1.57080537518970   -1.43177746412883    1.68419704132517
Cl          1.41707758304721   -4.27836835702014    1.19064494861860
H           0.54400978051153   -2.53510546518021   -0.13992933591603
Cl         -1.00494767473477   -2.74219826182939    1.63493563786768
C           3.55661030030923    0.82606281127717   -0.10650113841587
Cl          3.62713155820596    1.63750834239046   -1.67300727889618
Cl          5.18625161189763    0.66586329372038    0.56628701138905
H           3.12979072294733   -0.17283155003809   -0.24843914309795
Cl          2.54162889673475    1.74618363120298    1.00281476006022
C          -1.06011004793014    2.22694443730126    1.62800135932985
Cl         -1.28087100623707    3.45004402972724    2.88572696633897
Cl         -1.16407697187589    0.60720054813634    2.33038346438541
H          -0.07107081263180    2.34954157949178    1.18020836333430
Cl         -2.28914810287950    2.41654017814243    0.37141034203325
O           0.64514451650862   -2.73883225565343   -2.22411435301236
H           0.84102520792057   -2.01613662134022   -2.84176524694820
H          -0.28632241857432   -2.94472753541032   -2.33156182846172
O           2.00417976028534   -0.65825223983838   -3.56331150194750
H           2.62504030105629   -0.87893729606534   -2.85052215792666
H           2.50681037334653   -0.67626973505355   -4.37982660121336
O           3.19607965592590   -1.96541618250406   -1.37681194520845
H           2.38462174987679   -2.47626337093616   -1.51289731793966
H           3.87224375141149   -2.59063766325290   -1.10954051117853
