37
-101.794374903928
C          -0.43411405578289   -2.60622077659877   -1.32268011843220
Cl          0.81645620386963   -3.85645829028696   -1.29332063585459
Cl         -1.25028096652022   -2.59148409910309   -2.89184310889921
H           0.04102764194994   -1.63097802413155   -1.16773886818743
Cl         -1.60495084360329   -2.88400089053806   -0.03637600820650
C           0.26855856750861   -1.09903517548954    2.44086212325267
Cl         -1.23204548359973   -1.49125002480980    3.29567743760707
Cl          1.09828945201238   -2.57626495822015    1.94927428307690
H           0.91384684826403   -0.50572089752859    3.09613487376513
Cl         -0.10395926526481   -0.11484964246585    1.01990270987713
C           0.06149847728476    2.45401763459547   -1.74815051153669
Cl          1.36461334602782    3.65006398566618   -1.68419718794775
Cl         -1.14514364365097    2.93984166025731   -2.94878331615396
H          -0.41128954861540    2.39740305434538   -0.76503667149512
Cl          0.73196259017384    0.87009306065246   -2.15274954731431
C           3.28826033977785    0.27126634173398    0.29817877873239
Cl          3.78867682939621   -0.19769302896328    1.92576686190475
Cl          4.58529903023293    1.17350575201525   -0.49893339936631
H           2.40712169367985    0.91759514135022    0.38767320475486
Cl          2.88107019239530   -1.16806853758334   -0.64376610282285
C          -3.17896674855514    0.99975945906705    0.00315970468426
Cl         -4.62797495199815    1.89853148223840   -0.47270194930307
Cl         -3.57313144166242   -0.16897308168244    1.26975005481384
H          -2.43242981514577    1.70320066805660    0.38992828728426
Cl         -2.50307363379718    0.15995089220471   -1.39883395057839
O           1.39343030310316    1.41251582746170    3.81203707321326
H           1.62910245443467    1.81730536913370    2.95906107252399
H           2.05868598855835    1.69135415366375    4.44714128335340
O          -1.07159653590598    3.02518360625780    1.17547683198171
H          -1.42232351639657    3.91538094647755    1.23767323221181
H          -1.21306134451766    2.60410695729061    2.06226319145892
O          -1.29685127155278    1.91361696030733    3.55380166572233
H          -1.73122735789129    1.05375351447743    3.56003229442610
H          -0.37175012501480    1.73071411058284    3.81132265961588
O           1.63874753949357    2.65910172872509    1.39184338185586
H           0.68044912857301    2.79529747440771    1.25190977486611
H           2.08008434367313    3.39784572128144    0.95930610841501
