30
-97.746280852357
C          -0.48188660621015    0.65914559510425   -2.27447000724321
Cl         -0.16142399768383    0.25958878143248   -0.58352294228483
Cl         -1.07659180406046   -0.76667880894861   -3.12743197220331
H           0.45636285840879    0.98979940747970   -2.72507642687965
Cl         -1.66869288551132    1.96645585700393   -2.36778774029354
C           3.16028401961487    1.26853106502425   -0.01108226457142
Cl          2.92740966478476    1.59221760243772   -1.73179380681724
Cl          4.25423271939469   -0.09901014061234    0.20819399900275
H           2.19347314805640    1.01793764474810    0.43071682437627
Cl          3.80230331754440    2.70706905574199    0.78830274379738
C          -0.25270711863937   -1.62588061836190    2.15859512825779
Cl         -1.44919459442030   -0.36926827141741    2.47551357635055
Cl          1.36678357483371   -0.92418361541475    2.13469377637702
H          -0.45960982146495   -2.06832235105679    1.18142202962500
Cl         -0.34709323857436   -2.88709348452315    3.39460167526648
C           1.80705657794015   -3.16446419998196   -1.36747493933598
Cl          2.20308013477052   -1.62012516227231   -2.12300131865204
Cl          2.68216001984680   -3.33845775265072    0.16009414380803
H           2.10287929308101   -3.97048796357114   -2.04128607296166
Cl          0.06207295286898   -3.27506550925937   -1.08929284039762
C          -3.61121619624051   -0.32914406205659   -0.21231320951720
Cl         -4.72978352205072   -0.28824730294171    1.15592703340515
Cl         -2.81674865962447   -1.90460687866042   -0.29525255042009
H          -2.85110150111084    0.44056040127729   -0.06275445639784
Cl         -4.46955932162039   -0.00881315336588   -1.72361369642165
C          -0.29572040174461    3.42276741196730    1.24695033720209
Cl         -1.92479664166562    2.78662018998391    1.00275228240325
Cl          0.62505191573435    2.34565636066650    2.30224859192419
H          -0.37269391005759    4.40203194671857    1.72281900974925
Cl          0.53246317823257    3.60843666897976   -0.30417652301400
