30
-97.745665741388
C          -0.56290601691194    0.62250266425508   -2.27854529809856
Cl          0.71617741328138   -0.26399417238911   -3.13452799561802
Cl         -0.34297718016163    0.50981448501442   -0.52929345462075
H          -0.53011075540069    1.67813450726439   -2.56182756393247
Cl         -2.15048662657164   -0.02997574796719   -2.69625046892098
C           3.10945736534005   -0.41607426760339    0.40538770812629
Cl          3.47375855134633   -0.80475071264881   -1.27550268599133
Cl          4.28991925786077    0.74127981078578    1.03299970252254
H           2.10934492287121    0.02551971338637    0.45549799843759
Cl          3.11982050394297   -1.89085794831803    1.37453068649888
C           1.60134444434535    3.51370598371577   -0.35312053235765
Cl          2.40406020508501    2.37346858236818   -1.44798116632532
Cl          1.48224023596415    2.77598024158414    1.25003373164481
H           2.19290708434196    4.42583143033070   -0.28197910961025
Cl         -0.01910021545699    3.90918462708302   -0.94206062107349
C          -3.31239960397849    1.89184047334401    0.84551472561006
Cl         -3.10192099355267    2.70940505966678   -0.70870787941048
Cl         -1.87914644202408    2.14690658339140    1.84691662838599
H          -4.19147706674571    2.29343139104873    1.35305972243635
Cl         -3.53173537604234    0.15655569358388    0.56718104733283
C          -0.75595241196673   -3.47235803354132   -1.22863628498873
Cl         -2.15103386058837   -2.68382588227358   -0.47522071409754
Cl          0.75319847576184   -2.73829653571846   -0.67772952824614
H          -0.75610906484917   -4.52126541643477   -0.92585067747075
Cl         -0.88099520200813   -3.39675656529935   -2.99378292934418
C          -0.86356843208185   -1.26262380363277    2.45673896006558
Cl         -0.24324288131453   -2.90997053864684    2.60043099899646
Cl          0.46125270069185   -0.10628768046116    2.63762790843069
H          -1.30486492270197   -1.13865642030371    1.46557979293487
Cl         -2.10809213859315   -0.96177182189088    3.67805624189534
