45
-119.312106792959
C           3.65392527024571   -1.02080972689815    1.65741154587342
Cl          2.37434104625861   -2.02413984426576    2.35716875545131
Cl          3.43980105068084    0.65935605699486    2.14371550602014
H           3.58105874817156   -1.08183931651734    0.56945147821956
Cl          5.23809552108958   -1.60914414855688    2.17393869120399
C          -2.25035794551685   -2.46856220999149    0.45728936070129
Cl         -2.53581271446801   -3.77959535524790   -0.69623954690542
Cl         -3.53437918366699   -2.43390041853918    1.67012708167349
H          -2.23199305906502   -1.51723028031138   -0.08534181573606
Cl         -0.68325858795937   -2.70491176022835    1.24443062015137
C           2.38636284578398    2.24354960390699   -1.62640346805878
Cl          2.25281955242393    3.16969160775503   -0.12841208291706
Cl          3.12530927141388    3.24329674831686   -2.88745987725849
H           1.38309898348709    1.94199661592088   -1.94906354431358
Cl          3.36648744754185    0.80551252514195   -1.34612655354888
C          -0.01158900562927    0.55946902020540    2.18620543233955
Cl         -1.75731749433619    0.36905599436283    2.38129762211442
Cl          0.43434915403665    0.35888791039808    0.49252683458237
H           0.50118050931742   -0.20783784252102    2.77082590515586
Cl          0.49455412736633    2.15442085231481    2.76107173000689
C          -3.69401861167266    1.78866246205388   -0.04878570447573
Cl         -3.94860986566624    2.68345856758779   -1.54648270984221
Cl         -4.10957661639176    2.80221651283849    1.33680093469043
H          -2.63821655615384    1.51748923789505    0.01370554302424
Cl         -4.67715389877465    0.31697034035433   -0.04497275415455
C           0.64898212766387   -1.98645828543765   -2.25699413362937
Cl          1.29677597921758   -0.85354255983590   -3.45110156274707
Cl          0.11178690502271   -3.47230509331264   -3.05456721946091
H          -0.20501474506148   -1.50966967946912   -1.75897958964493
Cl          1.88148228450623   -2.36291559111706   -1.05600444524519
C          -2.60278063237871   -0.61292171079416   -2.82636016830215
H          -3.08112840726330   -1.56769774423703   -2.61471113780471
O          -1.81540812844725   -0.27610759143474   -1.70162245733325
H          -3.37419532885577    0.14004462648347   -3.00552750766498
H          -1.98548603948008   -0.71482438002185   -3.72287105378538
H          -1.35271866347620    0.56737608765165   -1.90121563259455
C          -1.28298634027613    4.77493404811227    0.13656902414392
H          -1.55208392311205    5.11462720600311    1.13860707864891
O          -1.05120713365559    3.37992894741995    0.12197018572270
H          -0.40255543636600    5.32364427355659   -0.20781876000923
H          -2.11599730034235    4.96370059789487   -0.53801537333916
H          -0.31608485646169    3.18499735817535    0.72040752049266
O          -0.65013624900917    2.13305145553246   -2.24989990870482
H          -0.81733657325013    2.63300408861065   -1.42415718974549
H          -1.13805906877578    2.58308389898490   -2.94344913525054
