42
-114.225042296706
C           1.16237189730913    3.21049101106617   -0.05616233325431
Cl         -0.29565846631032    4.19230090909177   -0.29341116701075
Cl          1.51763268427092    2.32183579779685   -1.54912382669776
H           0.97780830504604    2.48635176761519    0.75675078100912
Cl          2.54186978542818    4.24369313241288    0.36782649142131
C          -3.90753910548129    0.85264623389735    0.19222929962510
Cl         -5.03435301056072    0.42460972677627    1.50017828231765
Cl         -4.79808936932649    1.50852626216430   -1.19625188797806
H          -3.36945553964968   -0.04603885278655   -0.11999891647532
Cl         -2.73686268859273    2.05016645962850    0.78055174252700
C           1.74318058593500   -2.44670237056429   -1.24513830769185
Cl          0.18983655180141   -3.14727005664660   -1.72693638443224
Cl          3.00030468598674   -3.69582832834911   -1.23163336601154
H           1.64275829124999   -2.01117596475906   -0.24410612351816
Cl          2.19491090527844   -1.14863364699831   -2.36995904031778
C          -1.03437559609974    0.28689148290960   -2.31558669720353
Cl         -0.58652395790504   -0.00619929507348   -0.63128611498254
Cl         -2.24761108000287   -0.90934800841070   -2.82459294048902
H          -0.13520582813855    0.18044828948969   -2.93260187311441
Cl         -1.68641248881550    1.92382834423939   -2.48870998473263
C           3.75349752305090    0.48165306932629    0.48878190296984
Cl          4.64171960409474   -1.07235235872615    0.44549625613039
Cl          3.66208315541729    1.07875770830423    2.14760273621097
H           2.72705047446817    0.31977372420375    0.12668396306685
Cl          4.57344358539857    1.68638339022214   -0.55255924987428
C          -1.63258278142440   -2.40237164641917    1.48563042085945
Cl         -2.80503999468027   -2.51338679868843    0.15831129527428
Cl         -2.10091291705392   -1.09427842769295    2.57721252136049
H          -0.64160841949038   -2.16564230466382    1.08066750143038
Cl         -1.56706255010521   -3.92798121986543    2.37447941003866
C           0.39913604742659    1.74329663972797    3.59232819127681
H          -0.13092671834418    1.09505532481289    4.29645414176716
O           0.23943231336406    1.28182552561803    2.26052737296093
H           1.46929656186277    1.71663537219193    3.80588529542972
H           0.03601114822328    2.77091933161004    3.69786048995487
H          -0.70527765586665    1.29411643363807    2.03410870207602
C           1.71764838902254   -2.06659033519960    2.59199372781361
H           0.96314101486811   -2.26435685799683    3.36341852664672
O           1.19894568843605   -1.25322327649156    1.53694359222960
H           2.01886623714114   -3.02376164938067    2.13595273003425
H           2.58750493300701   -1.58959874241530    3.05987169669496
H           0.94216235053142   -0.37203693798757    1.89945422428076
