48
-122.468855780715
C           1.47055194600560   -2.83024188580534   -1.51398041265433
Cl          2.65746845628522   -3.15507653689563   -0.24696242716158
Cl          2.26089489992607   -2.03611554809755   -2.87926307569109
H           0.69700063472285   -2.16201811801543   -1.12251496295252
Cl          0.71724353326008   -4.34334912764896   -2.03656544728219
C          -0.42071526414931    2.45266262324596    2.08069471711798
Cl         -1.73800272797368    2.18164535814321    3.22803398466289
Cl         -0.90985604977898    1.94785300698898    0.46720023566335
H           0.44678581091259    1.85943918323634    2.38000623972945
Cl          0.04014790374904    4.15992217312190    2.06100074190490
C           2.47592247900881   -0.70435381895317    2.11697827083248
Cl          2.06741807481289   -2.13647898363608    3.06207718542437
Cl          1.22447574082380   -0.39440739967476    0.90970719471474
H           3.42015203936140   -0.86639219363375    1.59326092034614
Cl          2.64047131529306    0.70524275151939    3.17517448465790
C          -3.75777702682204    0.54037783908336   -0.57450678492170
Cl         -4.98965451301573   -0.50042534843479   -1.30763559369422
Cl         -3.82852015474539    2.14867510793902   -1.29866644395456
H          -2.76529962263038    0.11634889116966   -0.76764015458331
Cl         -4.01548137388202    0.65712256958653    1.16938533324974
C           2.85684124937067    1.73800605632857   -1.23357090634597
Cl          2.55537407725205    2.64535879579304    0.25282346859166
Cl          3.57356567241788    2.80457688978788   -2.45009696735627
H           1.90271506291732    1.35244550739328   -1.61829166174763
Cl          3.94525458410092    0.38543848621929   -0.90468289377473
C          -1.62100925124019   -2.16883170816303    1.22715999898765
Cl         -0.50980321273375   -3.54649728121029    1.25796699237882
Cl         -3.28347799070369   -2.74013991552000    1.02152093869694
H          -1.36004915746225   -1.52879136935098    0.37871870917653
Cl         -1.47762523371776   -1.23757980834933    2.71960850666923
C          -0.13668491735041    4.60940920338687   -1.88750944006619
H          -0.64441059113303    5.57601705152687   -1.91448960186503
O          -0.96435913529559    3.58690702378969   -2.40930487530705
H           0.16892855023245    4.38891711459809   -0.86236526044998
H           0.74586710530794    4.65383182587614   -2.52298566059371
H          -1.75610093006540    3.50845115279466   -1.86180136152782
C          -1.69272471390162   -1.59550131964618   -2.60456701602240
H          -0.93696606605105   -1.99274319561552   -3.28570532218615
O          -1.09677295299608   -0.86576874841556   -1.54775785477182
H          -2.23939707999800   -2.42390597242978   -2.15644342318076
H          -2.39055786349415   -0.97191280539228   -3.16950501249215
H          -0.58181599507128   -0.12680092797023   -1.94128955360527
C           0.50146967538062    1.04970018968258   -4.11573388757002
H          -0.43514861721033    1.03995278587184   -4.67825941243444
O           0.25762745980403    1.18814104603728   -2.72848263460054
H           1.12931713298699    1.86396294589336   -4.48315959918913
H           1.02262245908569    0.10464347234960   -4.26007843188462
H          -0.19342022838686    2.05162496335360   -2.58905119622774
