21
-33.651249325163
C          -2.60136923692422    0.00995862179878   -0.48328345734764
H          -1.95710368983356    0.75927236906343   -0.95204765164660
O          -1.89177534683620   -0.75410896489621    0.46807207907300
H          -3.40437865519618    0.51547599159150    0.05133564741522
H          -3.03685286062729   -0.62739024246791   -1.25754511457738
H          -1.19535078090169   -1.25821891765402    0.00131146156738
O           1.89587165097308   -0.66179409991738    1.08100090651094
H           2.41123701349911   -0.83171173051024    1.86946458154586
H           1.17651463721813   -0.01452394862557    1.35172681133304
O          -0.06771720588375    0.95781526263336    1.62102127947819
H          -0.83464900722644    0.38130092660511    1.44556187866328
H          -0.04982603687537    1.57098214427736    0.86058419925704
O           0.29544596937080   -2.11879178015126   -0.56197292383757
H           0.91429337437761   -1.71229069107460    0.07895957169391
H           0.27625003334056   -3.05712231233449   -0.37096618447884
O           1.73145685309577    0.24161420143463   -1.55974383103635
H           2.08379385802390    0.02105546653780   -0.68385025167278
H           1.16915665362274   -0.50421209893224   -1.79458376628392
O           0.10287980047006    2.24748396657962   -0.78553964628486
H           0.69393182435441    1.56420034428277   -1.17406313423294
H           0.53776641163385    3.08934787738309   -0.92406738795212
