21
-33.651388640286
C           3.35236448328875    0.33259065818071    0.04782153837982
H           2.96662509208413    1.33773241372786    0.24912336135626
O           2.31141882988041   -0.60504661460810   -0.06130644589952
H           3.95635259917693    0.36219000518431   -0.86353086568355
H           3.98285179395612    0.02079034543370    0.88016294502658
H           1.71736144325093   -0.33019491388640   -0.80246796607205
O          -0.93518960010668    1.76104725086444    0.24770943121879
H          -1.79027379813590    1.29032374218448    0.11545296095540
H          -1.12580946116662    2.69756552065339    0.18889121955911
O          -3.10914317175394    0.21428459478344   -0.06555902708818
H          -3.52573245408748   -0.04247506180981    0.75917981766487
H          -2.59386732809592   -0.56017430508855   -0.36084162567778
O           0.34008970700730    0.20671347733120   -1.70696365487278
H          -0.02668604668045    0.89480671493985   -1.12753138019152
H          -0.25524369124001   -0.54925047373816   -1.59806363076911
O           0.07564794142391   -0.59518096332298    1.49569185951112
H           0.98230018519659   -0.68121528466622    1.14025523622276
H          -0.18040301015011    0.32069394113375    1.31760838807701
O          -1.27122044368094   -1.75461928237167   -0.45750492391976
H          -0.77047017356258   -1.41132629619433    0.33209242815176
H          -1.16261241438161   -2.70558956100483   -0.45621769825773
