24
-38.740946722064
C          -1.44379959010583    2.56771278677720    0.01479961497759
H          -2.13601041114831    1.96250835220121   -0.57670272496228
O          -0.32042475536585    1.81239476346577    0.41132048748956
H          -1.94466029593992    2.89890838137120    0.92330899728157
H          -1.14316102443737    3.44402771693171   -0.56606742329266
H           0.13289503086113    1.49403890124842   -0.39645697030329
O          -1.24960270852878   -0.54869581984239    1.54961266073389
H          -0.44553096682580   -1.09148005549304    1.55263648094245
H          -0.95463542079473    0.34764738210513    1.31172111595885
O          -2.28470256668427   -1.20956750631570   -0.81286010409810
H          -2.02102615018729   -0.95046728423483    0.10433296295030
H          -2.90325367585434   -1.93440705730583   -0.71909808202629
O           0.29983151864482   -1.67502156736674   -1.48054637334561
H           0.62021804414188   -1.91433186479130   -0.59559778710640
H          -0.66706752594571   -1.54936870390935   -1.38207402299668
O           1.21679650917990   -1.79015712316035    1.15865597999650
H           1.70718079117745   -0.93363807186077    1.09396177158399
H           1.78961608402187   -2.39996276930543    1.62380425156933
O           2.33261078913763    0.61061433978537    0.85606663489746
H           2.17685004654134    0.71139690020478   -0.09918243909234
H           1.73551661453671    1.23902435491411    1.27339668666720
O           1.19032612556660    0.76707350730183   -1.63978754280862
H           0.86327828618766   -0.18047706871356   -1.64655019251885
H           1.37430934629084    0.99296495307376   -2.55154440256872
