12
-16.459990985440
C           2.20752043405838    0.62837515821473    0.01976722241192
H           1.87370001854570    1.54575905110459    0.50066277137959
O           1.40145108513422   -0.41111171970381    0.53272584377391
H           2.08795056972862    0.72803783299787   -1.06286767728169
H           3.26315016572670    0.46646724868747    0.25506774899747
H           1.67621565437725   -1.24554425243615    0.13707416199586
C          -2.23208660986445    0.05486359196701    0.42689748866912
H          -2.09561348306789    1.00409649492967    0.95775567370972
O          -1.23606932062041   -0.14698844453783   -0.54017080831193
H          -2.25426799039516   -0.75807226266143    1.16162358958164
H          -3.18601441922431    0.08037391791513   -0.09882687314971
H          -0.37519360169910   -0.18045738851076   -0.09041818067468
