24
-36.806510886486
C          -3.27196195114768   -0.36132318766844   -0.32001702445817
H          -3.55862956404924    0.55044531262886    0.21327313191558
O          -1.87462554207590   -0.51263545315236   -0.36112536621217
H          -3.69603076797730   -0.33111055616770   -1.32761513967037
H          -3.67446353068483   -1.22469960918213    0.20890227459243
H          -1.48835484750148    0.26525844026292   -0.82935204850994
C           0.99009176375503   -2.45790814208803   -0.57817104401791
H           0.01952845206524   -2.04734804023013   -0.87152727680668
O           1.69041445435176   -1.56558420910137    0.26207196530793
H           1.56973681673080   -2.69427301766874   -1.47449332789895
H           0.83307958634785   -3.37244538748286   -0.00788168183150
H           1.89327316221415   -0.75573891003718   -0.24790270322024
O          -0.20042880994860   -0.29244119191890    1.80367820060074
H          -0.93336359668484   -0.44912099857159    1.17837806998582
H           0.51852675482525   -0.86693960552809    1.47974161536225
O           0.67909320172953    2.04872001650581    1.07707795304687
H           0.83801521710788    2.59649051513400    1.84584942084245
H           0.31910908870486    1.17815479846570    1.42410864614376
O          -0.59600248022262    1.64461023800002   -1.38056643498859
H          -0.33354158902738    2.04228665834590   -0.53648715661286
H           0.22307527665302    1.31243789280530   -1.76297904992861
O           2.20178338863899    0.91620618077420   -0.86891247848575
H           1.76265217091474    1.39822701015490   -0.13839411516924
H           3.12859100586800    1.15641945258578   -0.84106613561808
