24
-36.804781097428
C           2.89958758250008   -0.20306510751653   -0.27576632387039
H           3.54324217622345    0.66665488184350   -0.39911040075837
O           1.86447047954191   -0.08999791734957   -1.22489841962253
H           3.49239308810307   -1.10777009191655   -0.44395838416649
H           2.50743633301782   -0.22041451663036    0.74495554800538
H           1.22453898305912   -0.81016168219362   -1.06673837086763
C          -2.88773903492754   -0.02267392066634   -0.24897630323132
H          -3.60414090644090    0.73824697829733   -0.55465869180930
O          -1.92949484038133   -0.12202012251935   -1.27787852324241
H          -2.42857819173904    0.28251163152701    0.69623023826247
H          -3.41698459523274   -0.96924055219079   -0.10452616799386
H          -1.29869452289477   -0.82617992665879   -1.04445905749054
O           0.28815252349920   -0.98125479813960    2.14435598948310
H          -0.33687695119841   -1.26111960718148    2.81473125147049
H           0.12340802396756   -0.01372922442662    2.01235389274590
O          -0.01020696882288   -1.94182524123738   -0.31595990812425
H           0.13318005221605   -2.88871987371848   -0.30591733935492
H           0.10642465378995   -1.62440543671183    0.61322186992653
O          -0.25903355780451    1.57600141294538    1.74053577473903
H          -0.21432684357725    1.73758932666541    0.75732715782575
H           0.29080225173552    2.25191099216323    2.13831383258552
O          -0.04772123256484    1.87060685136047   -0.86325658697831
H           0.73749204268970    1.34211593103632   -1.09348518178036
H          -0.80124092320262    1.35002225094907   -1.19230302111490
