27
-41.895350981029
C           1.08260830359285   -2.74923917633029   -0.07992988302956
H           1.92071701212238   -2.20179241885143    0.35961749739963
O           0.01393337053676   -1.88064882488777   -0.39032824646501
H           0.76266497530530   -3.53571713877593    0.60932001462403
H           1.40413845701410   -3.20635092378203   -1.01448608808499
H          -0.28038591300639   -1.45844219904694    0.44032772527487
C          -2.98513927124330   -0.39890753181024   -0.83480262506218
H          -3.45074477109471    0.11342041176061   -1.67572527663471
O          -2.53241537646164    0.59728633682923    0.05973977964271
H          -2.15823798386854   -1.01487406840282   -1.19512884510244
H          -3.72877917999180   -1.04098797484366   -0.35582499784404
H          -2.04541372381711    0.15809444735169    0.78808151050777
O           2.93880324423747    0.30379616540456    0.21111153156810
H           3.71001446995294    0.81375554112403   -0.03767786243337
H           2.38045564709954    0.23073636694006   -0.60320536483966
O          -0.79135823741330   -0.49666586386218    1.86915208233526
H          -0.13174261308810    0.25708796263446    1.81138588705338
H          -0.88799969429528   -0.69753093367266    2.80026279041792
O           0.88869471561585    1.46438217983057    1.54547369868751
H           0.47726841420590    1.89269501991003    0.77682948685926
H           1.70533445974077    1.04590205495759    1.20091104149546
O          -0.52842148734898    2.18734496401902   -0.75216000969894
H          -0.86509060537854    3.04002239099741   -1.02862733777782
H          -1.31137405795531    1.63724447969133   -0.51497993694581
O           1.17732943734524    0.21334215535370   -1.78014687477242
H           0.70577454424084   -0.57915081770363   -1.46546653430116
H           0.60130518274046    0.96228345952309   -1.56354875292292
