30
-46.991041076136
C          -2.97656993130562   -1.96228534101341   -0.07399972070622
H          -3.61777487197691   -1.71456420452901    0.77824690729937
O          -1.90622763624611   -1.05154387155662   -0.18290505796191
H          -3.55825750651471   -1.88607384467009   -0.99413039281890
H          -2.60937059671879   -2.98674377768959    0.03740524485071
H          -1.35978213518233   -1.07933530066545    0.65405377198559
C           2.98211109024561   -1.96349905677207    0.07202803186043
H           3.62515521869473   -1.72447300787007   -0.78218335907586
O           1.91894156569087   -1.04396488730618    0.17850836293277
H           3.56510499806881   -1.88960265203023    0.99228015889585
H           2.60442556854602   -2.98444866047301   -0.03496684707715
H           1.36598449314715   -1.08054347192368   -0.65222245671746
O          -0.26885043750846   -0.91584922745019    1.88280223732588
H           0.58581631133102   -1.07683386149930    1.45071543172841
H          -0.29229542457420    0.04201869044149    2.05978532697089
O           1.87114999787857    1.70687486666300    0.24757719450918
H           1.21021410574221    1.84334304577222    0.94765795709282
H           2.08305890806017    0.75629029551111    0.27676607801289
O          -0.34902299588596    1.83877965033676    1.89374696859981
H          -0.98189296781492    1.85370689236544    1.12442691618763
H          -0.66564753643186    2.47752571193953    2.53128122187319
O          -1.87672180001259    1.71258636647468   -0.25208203696948
H          -1.21491966953887    1.85836348880059   -0.95022314177194
H          -2.08309230740516    0.76217952660326   -0.28888859724914
O           0.26584566313048   -0.92861115864263   -1.87985120367462
H          -0.58519615145925   -1.08469079224967   -1.43422076343439
H           0.28306280757621    0.02467266634559   -2.07052289787800
O           0.33714071993952    1.85000531489905   -1.89012637933124
H           0.97600073772598    1.83850429245420   -1.12573210771872
H           0.67162758762363    2.49415057783217   -2.51520204929780
