30
-46.991216011532
C          -3.30202927926190    1.52911395125531   -0.00243541075085
H          -3.87684107420738    1.15293853495822    0.84773800699989
O          -1.99573464245446    1.00437719644798   -0.00047442166642
H          -3.21764501676113    2.61280301090749    0.07440121336822
H          -3.82520284789562    1.27479254750969   -0.92780628400649
H          -2.04736520465272    0.00654476136739   -0.07062293307395
C           3.29199183342861    1.53411311208175    0.19079264828996
H           3.20171002730702    2.61769535476886    0.26226384515227
O           1.98855263653403    1.00746839044815    0.11682477151450
H           3.81686060253728    1.15894937018214    1.07311036881880
H           3.86854180298066    1.28036365966993   -0.70247275740914
H           2.04561787024470    0.00968672301680    0.05019409911022
O          -1.86514412543266   -1.62090920875376   -0.17722051658184
H          -1.27116597728639   -1.71676168127436   -0.94114532252703
H          -1.31671715559561   -1.82252207394652    0.60007495677690
O           1.87218760234350   -1.61803684454862   -0.06640804879707
H           1.27909325257821   -1.82047843219068    0.67711905891033
H           1.32450228196189   -1.71467904139773   -0.86409962407758
O          -0.05673147360860   -1.71667645895747    1.90949723795611
H          -0.06042391493402   -0.72529512278016    2.01522755129916
H          -0.08299570056911   -2.08504233935428    2.79248232214141
O          -0.05978868572069    0.91290692309401    1.96576988008848
H           0.72905624882136    1.11478271245783    1.43326872308574
H          -0.81606508440260    1.11365095454753    1.38752525997465
O           0.05231531504632    1.17433073566432   -1.84428466585321
H          -0.73738259180021    1.29735047444804   -1.28945163438282
H           0.80773669144858    1.29845435689583   -1.24382602973870
O           0.06351019657540   -1.43828818564533   -2.14735725888881
H           0.09168697463251   -1.68261008584256   -3.07232189270586
H           0.06173310087430   -0.44173009889606   -2.11690834981883
