30
-46.991078695999
C           3.25025978792961    1.56484721441906    0.15029028133237
H           3.85886406458952    1.24715502355683   -0.70010331885185
O           1.96028261066793    1.00495893722966    0.08713619465594
H           3.13629654637820    2.64784058034396    0.12475914626951
H           3.75605880871744    1.27870641804511    1.07668540789980
H           2.03931131515203    0.00748308312726    0.11317021826130
C          -3.02145119343119    1.94641562046009    0.05318305879581
H          -2.66001150905429    2.97523218199171    0.12837163920116
O          -1.95403858613119    1.04584321217339   -0.12299780575940
H          -3.66904800363028    1.85766389348074   -0.81841993907157
H          -3.59375166095178    1.70326157778909    0.95225534193805
H          -1.33862941152405    1.11486165844201    0.66399135521399
O          -0.21901139542588   -1.73617988968157    1.90327360212008
H          -0.88995034831779   -1.79207787768558    1.16778275112276
H          -0.50271524441647   -2.35146931770021    2.57922575412145
O           1.88306913487536   -1.62305412218330    0.11827817295367
H           1.26809587298675   -1.77681064372380    0.85562478409575
H           1.36830629971155   -1.80215726377001   -0.68709715502264
O          -0.18607675245660    1.02633652094074    1.82627408678043
H          -0.16606650356733    0.07745962064506    2.04087345673311
H           0.64052338408083    1.19245195820258    1.34105808983355
O           0.15841568635942   -1.65158149043063   -2.04353399000918
H           0.14023472707806   -0.65585525724821   -2.11782703923144
H           0.24977176672963   -1.98341744047661   -2.93661795816987
O           0.10096421416240    0.96879496159979   -1.95715964540826
H          -0.71728832563465    1.12890953115488   -1.45594025060924
H           0.82544656504199    1.15824472367950   -1.33472088366385
O          -1.84830142247472   -1.71970682396247   -0.15279714948511
H          -1.22796867889680   -1.85372409888100   -0.89002975016688
H          -2.09387837983913   -0.77955403516477   -0.19754350452324
