30
-45.050570974667
C           0.58206944946027   -2.85265514496769    0.32373771513482
H           0.89288394138019   -3.23465615952245    1.29491246733499
O          -0.43355138726377   -1.90076625887441    0.55976991763434
H           1.44098037322788   -2.39603753019616   -0.17549214518535
H           0.20915883223362   -3.68314313176245   -0.28224052362457
H          -0.71930758576195   -1.54635605981012   -0.30454618928678
C          -3.32438153631180   -0.18741063211868    0.89717040999850
H          -3.73480586944183    0.43563655077183    1.69071283646677
O          -2.82477758468665    0.68291043637341   -0.09815741304263
H          -2.53367030204139   -0.82204662468204    1.30335101805542
H          -4.12082688729030   -0.81902621134347    0.49539244997705
H          -2.38427446797204    0.14208079385086   -0.78641500138233
C           3.83483562469974    0.58342482872517   -0.06517493357147
H           3.71784467050694    1.64195695636897    0.18844945294619
O           2.59004046810491   -0.03485601620839   -0.27201530899363
H           4.39718027209830    0.50077281121381   -0.99510880096677
H           4.39346479537870    0.08804062193617    0.73399243578919
H           2.05714535221783    0.04103312313335    0.56319455107231
O          -0.70482759436953    2.20812386637678    0.51984567990143
H          -0.97830251709494    3.10653934591135    0.70702261243130
H          -1.52723459704147    1.69113740750518    0.35162306882282
O          -1.19784294019690   -0.69876665216432   -1.81668785362241
H          -0.48980368299771    0.01058093596257   -1.84205622717710
H          -1.32880062020849   -0.98006371004952   -2.72249944614387
O           0.61524987275621    1.16704572946630   -1.70688639452358
H           1.41328382645852    0.73633231817602   -1.33788499652810
H           0.24840451804930    1.69414657577397   -0.97758697323603
O           0.86887772362215    0.23801116119105    1.74758430831655
H           0.34268331268793   -0.54679086233991    1.51123566022631
H           0.34727536575381    1.00039258188494    1.45424508488058
