33
-50.146090632357
C          -2.30380132464024   -2.72260715587329   -0.89630443900625
H          -3.07461071219362   -2.25174084884687   -1.51181204451424
O          -1.46501135520739   -1.75557064918205   -0.31025293340269
H          -2.78032601800306   -3.27369388601510   -0.08600834224788
H          -1.72938705188044   -3.41791676423213   -1.51387958335445
H          -1.01161822590311   -1.23647857113193   -1.03576857322579
C          -1.58162128989430    3.16147852438433   -1.00706071417206
H          -0.98054899896088    3.69763642124691   -1.74096244993184
O          -0.85079466118706    2.02347397150768   -0.61607106463010
H          -1.77404000016684    3.81653969584442   -0.15345172552802
H          -2.53453728106194    2.87845519275333   -1.46165095236594
H          -1.38142244249444    1.51460825772517    0.06311369948263
C           3.55943645549602   -0.45898647713978   -0.99229612755300
H           3.79501752048157    0.38932708844474   -1.64009080446645
O           2.21101901497589   -0.42734348513862   -0.58862332056802
H           3.71145149904983   -1.38495767255606   -1.54622598997594
H           4.22796575665665   -0.44418613610836   -0.12766816757933
H           2.04469612080218    0.41782426401819   -0.07832389912384
O           1.51505480853815    1.71182576943018    0.77831513791881
H           1.12522440241144    1.29578217099776    1.56668730112309
H           0.75807801181321    2.02441860577343    0.25405796377772
O          -0.14382634417953   -0.25243756504237   -2.02259835566585
H          -0.40164280571469    0.63577317305483   -1.72053635189581
H           0.76664125577339   -0.37674517657345   -1.70376454658190
O          -2.03448765272156    0.50788542261179    1.18278570128306
H          -1.33105232204813    0.44961588350372    1.85173237083204
H          -2.02788437301130   -0.35251819841317    0.72947276547638
O           0.25842327982070    0.14330852259491    2.67901256312335
H           0.43656784906566   -0.00916754247927    3.60703540210738
H           0.49312453427885   -0.70044215118561    2.20188082780682
O           0.81452725053644   -1.97419600322518    1.22999842990991
H           1.43419849402631   -1.60197881654681    0.57852357471863
H          -0.01999067104287   -2.09948432686985    0.74568718529018
