36
-55.230975545627
C           3.47957592829393    1.46548635219496   -0.48625678761626
H           3.15980839894277    1.07515173185873   -1.45809602489138
O           2.51576632180217    1.21471203202270    0.50863157584513
H           3.67484428663820    2.53605468766046   -0.58199077103083
H           4.39992909538836    0.96411256398431   -0.18605486351600
H           1.68465857177723    1.70530372766988    0.26180995926527
C          -2.31448801996008    1.74281239900126    2.37940506253129
H          -3.14493899206911    1.13521685459594    2.74799389497357
O          -1.73224567862790    1.16167387776795    1.23667144761666
H          -1.57674140857109    1.86149538579043    3.17700603471070
H          -2.68930844492012    2.72415133451244    2.09005569687869
H          -1.39367580664087    0.25263136375941    1.47604562948724
C           2.70942819051047   -2.12968365787101    1.15231665975458
H           3.59765535685760   -2.10848891710159    0.51515488662613
O           1.69175930745591   -1.30726751298786    0.62842519739622
H           2.98507752085271   -1.81575244407015    2.16180712713516
H           2.32017389779137   -3.14673227950925    1.18702446687012
H           2.01840228799169   -0.36771333636256    0.61532978953579
O          -0.39952168414237    0.73693486169225   -2.47813509552833
H          -0.05496111535590   -0.16817798288140   -2.24401450758825
H          -0.25358438849655    0.84915395091745   -3.41744450521689
O           0.25459255829363    2.32298481297480   -0.30185252065621
H          -0.44317720866782    2.04897978797939    0.31718616419525
H           0.04894814734978    1.86790139929575   -1.13520724297346
O          -2.10700688957015   -2.18726989220239   -0.65632099609943
H          -2.44065812057360   -1.27124993125996   -0.87141065671424
H          -2.82942623357498   -2.78862293676680   -0.83651961724798
O          -0.88208568947129   -1.30040008882817    1.66048216126677
H           0.05935080805231   -1.33207090856355    1.41944697600585
H          -1.34818151921889   -1.76047986148729    0.94174319101714
O           0.36557116714255   -1.67502610215057   -1.77002297056095
H          -0.48308170619841   -2.02807452284951   -1.45142577674372
H           0.92867096418317   -1.61361551109060   -0.97903950786283
O          -2.78339685855809    0.29752384774726   -1.16356355028915
H          -2.60512780451382    0.72779747340032   -0.30940830480229
H          -2.04508956886982    0.56556944090261   -1.73878134239212
