30
-43.115633372077
C          -3.02850626550538   -0.78295935397783    0.87491556201519
H          -2.06754269884612   -1.09424676584760    1.29730894178594
O          -2.85165902067693    0.00580105896434   -0.27913355721822
H          -3.59724883844351   -0.24620255108747    1.63934778531279
H          -3.58935338513871   -1.66763529988170    0.57500638538235
H          -2.36295737743063    0.81831278875287   -0.02691205018235
C           1.18135411705855   -2.87600685874702    0.80154678211467
H           1.63431872988858   -3.28258193477477   -0.10708805126830
O           0.72688997898899   -1.55856990841627    0.60093881010931
H           1.91109391302865   -2.92258667168905    1.61505326116419
H           0.31417538105544   -3.47909816629202    1.06912366933270
H           1.49083716677897   -1.00649730715051    0.32285047844646
C          -0.39069070687754    1.71567674475714    1.54486600520160
H          -1.10254992690578    1.82108665523368    2.36288749542427
O          -1.07907089288047    2.02292935311618    0.35347449589587
H          -0.00613987578432    0.69163654636460    1.53156436679540
H           0.43765011648410    2.41118433328279    1.71141782734104
H          -0.46191160329684    1.90615016922728   -0.39671907260380
C           3.40763645076640    1.00162268630060    0.35822860540334
H           2.77540999956497    1.57604022772015    1.04244407240252
O           2.64800558308281    0.10582463485644   -0.41621470482399
H           4.11116214521346    0.40714774361907    0.94015057991837
H           3.96916604920100    1.69503355707972   -0.27409825686305
H           2.00605562376012    0.61618800702534   -0.95391639037442
O           0.57079768560353    1.29808173654906   -1.74687975788417
H           0.07652695388169    0.42510185632171   -1.80563986131277
H           0.54386236249001    1.67813176634380   -2.62563468139071
O          -0.71995016628056   -0.95885229716575   -1.68478187471130
H          -0.26648688169046   -1.35032155689405   -0.91600264033828
H          -1.60383648346133   -0.70501019451957   -1.35310342361000
