36
-53.301037216450
C           2.42927411060420   -1.19753382378724   -2.63993144271332
H           2.28037317679616   -2.23727050318034   -2.92991752019221
O           1.46173302896558   -0.89087430918981   -1.66391935127999
H           2.31460540522065   -0.55966455750806   -3.52010476803028
H           3.43994182120370   -1.07742037148585   -2.24139532404625
H           1.57496602029898    0.06285533150897   -1.38324669304872
C          -2.61463489245875   -2.57960906102019    0.84356855891655
H          -2.62687422167268   -2.86647451715605    1.89469667207184
O          -1.59373490072621   -1.62354006026477    0.68081521207994
H          -3.58852131365895   -2.16300327643883    0.57398121992455
H          -2.42378127336119   -3.46534201165930    0.23217680564603
H          -1.55922072186574   -1.34627031965987   -0.27995329520089
C           2.24975827658903    0.80998143091278    2.93756979515849
H           3.26716219582355    0.51604396941028    2.66703484603565
O           1.37360228995013    0.66073931665177    1.84539372236008
H           2.24414113893283    1.86307940293657    3.21733593714836
H           1.91986205088151    0.21057498019037    3.78998901319291
H           1.35818170169796   -0.30135426786009    1.57090947107666
C          -2.01560359089840    2.98652009296538   -1.13081513050515
H          -1.75590099047549    3.83365155753269   -0.49076345550564
O          -1.19881227099880    1.87375228022172   -0.85261988921466
H          -1.84822832189968    3.26049700573493   -2.17207944337277
H          -3.07166935349110    2.74285769294866   -0.98921503900163
H          -1.33127834723214    1.60479387797583    0.10198099092306
O          -1.29383370271118   -0.73311394877586   -1.78004859191130
H          -1.36430742299429    0.22626957790142   -1.63539368553592
H          -0.34590948831088   -0.90226499818390   -1.91737317657975
O          -1.36179469689842    0.97164271250064    1.61683600177384
H          -1.57474328945533    0.03645594577004    1.45441034593715
H          -0.42339763480258    0.97975829319145    1.87254119048480
O           1.15137415693257   -1.79987362185796    0.93227358854763
H           1.36531224754737   -1.66388410486356   -0.00693798475700
H           0.18597482938186   -1.91513627726303    0.96056040178749
O           1.54635504795230    1.58149118837688   -0.75942867860231
H           1.61591676799580    1.42131240811188    0.19758753067002
H           0.62537140145806    1.85777283754734   -0.90617815085389
