36
-53.296440651264
C           0.25277736559266   -3.54900196939731   -0.87553065916060
H           1.27743302549728   -3.75684261654882   -1.19337152331882
O           0.13241977054057   -2.23309080832412   -0.38620743260794
H          -0.42424007911856   -3.71878396486400   -1.71688007380333
H          -0.01403732580166   -4.22236227257189   -0.06174966117559
H           0.39663387205691   -1.60242895565197   -1.10310182798740
C          -3.30106445937098    2.05963404928150   -0.45678119425242
H          -3.66806644875939    2.18885487494819    0.56576969284779
O          -2.13764054512197    1.27010645859454   -0.48570957393533
H          -4.05940785806122    1.54305685990437   -1.04483054801379
H          -3.11916155657977    3.04462497971559   -0.89547886438615
H          -1.43797134682319    1.72275367970989    0.05745034594417
C          -0.03416862878265    0.27688113375233   -2.87557027292369
H           0.38379789626420    1.12285412082071   -3.42640310183355
O           0.97737201025199   -0.40869519138210   -2.16265350854293
H          -0.81973758981630    0.63239716729015   -2.20493488523833
H          -0.45764997442182   -0.43123280474815   -3.58690225442695
H           1.38424450613195    0.21505480370769   -1.52439360977132
C           3.33526270230713    1.55757153321756   -0.12809623167455
H           3.65010717114726    1.90997192013937    0.85720036942289
O           2.01697480556002    1.06197527731881   -0.08918877442320
H           3.34900291807976    2.39351834535533   -0.82700288487657
H           4.03253182534525    0.78940169550213   -0.47218652991092
H           1.98075160465569    0.29595210705215    0.55603174869293
O          -0.52659076122359    0.07982137080407    2.79237881545423
H          -1.14398127839951   -0.37240368961365    2.14983698896968
H          -0.91741989364129   -0.01757504895109    3.66063207266708
O           1.68312686374616   -0.96758764181304    1.54796001117019
H           1.21393048749829   -1.58441330438302    0.96127783214903
H           1.00068325202368   -0.61414068663193    2.14579880460727
O          -0.21693871246291    2.24752966650249    1.07809285579717
H          -0.28825442945466    1.61486812958820    1.81255776847127
H           0.60672054176714    2.01599028723698    0.61884763492820
O          -2.00797374902717   -1.04754521040477    0.95115514263473
H          -2.19117072921843   -0.28172009000335    0.37104354195082
H          -1.36707623001792   -1.59161907914167    0.46570052981324
