36
-53.296730183673
C          -0.73464779616586    3.64505794340113   -0.02543173106721
H          -1.80593632353833    3.80052475238499   -0.17485640987680
O          -0.44499909166168    2.28079172831818    0.17644908318631
H          -0.41592352182670    4.17913556810391    0.86895783960007
H          -0.19190438110249    4.03772357101286   -0.88921820866837
H          -0.75691827221124    1.76955845029323   -0.61270340096610
C           3.49113113619631   -1.09878282103031   -1.32599299169741
H           4.00060440192243   -1.42292080888436   -0.41355255594514
O           2.16535321601317   -0.71176519593698   -1.06099640036866
H           3.45234941011072   -1.93165856981815   -2.02781750278588
H           4.05776497241229   -0.27898311365021   -1.77612085527521
H           2.18147795660723    0.03636184043851   -0.40628733570404
C          -0.50206825513767    0.31029461063443   -2.78996702256188
H           0.40545937834390   -0.11145137275864   -2.35211282119125
O          -1.40760116085509    0.73369784839872   -1.78843155299320
H          -0.96733560273296   -0.43008749075566   -3.44560369785686
H          -0.24542730808216    1.18937260563968   -3.37971437969012
H          -1.64355308169643   -0.04405589796845   -1.23975935505841
C          -2.77040437816038   -2.36209085706125   -0.22673310985408
H          -3.73586999222306   -1.88975070794269   -0.40737171697012
O          -1.82565117001871   -1.33449980826763   -0.04119804125579
H          -2.50866752034659   -2.98572937485578   -1.08565433022593
H          -2.84088983353144   -2.99356901794302    0.66232148403021
H          -0.92726691663284   -1.75066749979050    0.13544350163420
O          -1.51881360004225    0.49996186850013    2.01006916501660
H          -1.83306776007147   -0.14909885627483    1.35712574266289
H          -1.22924747027460    1.26645614248723    1.48656061007570
O           0.55620828654825   -2.26131447805036    0.50789086762534
H           0.73822469019027   -1.80406145914124    1.34624577163659
H           1.14999098788096   -1.84107580845688   -0.14508450713114
O           0.79930079970964   -0.54912346940797    2.68039134415214
H          -0.09965894125071   -0.15398438986764    2.51662645006234
H           0.87306713066177   -0.67946476243205    3.62579717718447
O           2.01718336582572    1.14170769456017    0.84343058384648
H           1.23906191330417    1.67583207893222    0.61634280707644
H           1.73490800685596    0.57710886482349    1.58220448941055
