39
-58.385917296552
C          -0.57960480622702   -2.89729589349346   -2.40743754911676
H          -1.53136691083980   -2.77389924059334   -2.93049737280494
O          -0.49464034196870   -2.02868132280569   -1.30226562589832
H          -0.50953308763838   -3.91577555544741   -2.02661976082483
H           0.23945749921010   -2.71940234176712   -3.10882926454032
H          -0.57006614048074   -1.08752901682176   -1.62739445631599
C          -3.95432421093081    1.26892870292024    0.09694786017140
H          -4.37801769676067    1.19590142306830    1.10193284274999
O          -2.60161549339047    0.87949787662461    0.08953421453505
H          -4.54401153161541    0.65067674569541   -0.58477756468285
H          -3.99664528882970    2.30625475745873   -0.23431862555741
H          -2.53700056291536   -0.07349527232808    0.39156337196865
C           1.89208543666936    2.95751055531247   -1.19013283776571
H           2.43181958639845    2.74150801907321   -2.11510185868795
O           1.29426621963749    1.79134858692854   -0.67076084004892
H           2.58265668310074    3.39954690173213   -0.46693252781837
H           1.09265302826929    3.66763774674092   -1.39921312186962
H           2.00759678013746    1.11901983716733   -0.49981551240177
C           3.95016513995248    0.26819681605179    0.98471547732435
H           4.59469447612263   -0.57550553164619    1.24183886680823
O           3.14960566957155   -0.03029539655835   -0.13418328073200
H           3.33787899745512    0.52496292641820    1.85548170054572
H           4.57460063092934    1.12282417174025    0.72347714145460
H           2.60757789555354   -0.83744784852872    0.08248418836882
O          -0.07012309917409   -0.77595776411946    2.44306821603810
H          -0.14186495077713    0.16854841450066    2.13564261134826
H          -0.02589797738483   -0.74872974920511    3.39893459548223
O          -0.79144087980368    0.50873002188867   -1.97064340486283
H          -1.52817961498644    0.75184450572803   -1.38437646151202
H          -0.01977372318761    0.99294578434820   -1.63035723727468
O          -2.16805627187828   -1.60264858805526    0.85178873676154
H          -1.68746384981572   -1.95177574228308    0.08157480878464
H          -1.48421853902167   -1.44946713555581    1.52707025770112
O           1.54857877317907   -2.01629232680211    0.56650512193140
H           1.03527983540221   -1.65564194368308    1.30835706747566
H           0.90494823980374   -2.14409890097907   -0.15069688969919
O          -0.37979190528021    1.66801486563889    1.52453904764801
H          -1.24475957851202    1.57530218492759    1.08895617475954
H           0.25461401857867    1.81764737800580    0.80194456858455
