30
-41.184769403017
C           0.34737590124581   -1.78092526081206   -1.84075163694307
H           0.47593822268359   -0.69470823143917   -1.85012136561392
O          -0.08172092750414   -2.23921224192365   -0.57932346476022
H           1.29231594625251   -2.25220787233265   -2.12879615573543
H          -0.41820862065656   -2.06132509825316   -2.56350842661353
H           0.54370597651950   -1.89533351817647    0.09508061286001
C          -2.26756960210055    1.62637486425223   -1.64730015287308
H          -1.94622223678637    0.81621104119946   -2.30935735844977
O          -1.66002085054837    1.52618830405255   -0.38154263291777
H          -3.35697868502773    1.60295180256088   -1.56306325178553
H          -1.96585927363019    2.58078120326685   -2.07848251646341
H          -1.92955883483480    0.66459682830382    0.01739865380196
C          -1.96491684185331   -1.12638833032232    1.91477948529858
H          -2.16968268284352   -2.15594029031243    2.21998100057162
O          -2.21185415403013   -0.95301577379482    0.53649751241538
H          -0.92983024822322   -0.87955837388288    2.16596627771052
H          -2.63764323306417   -0.45702809348223    2.44972742777676
H          -1.56346991175957   -1.50764603239969    0.04897975608217
C           1.48953295525010    2.65783766009068    0.31271995006493
H           1.23058719136784    3.52577995604899   -0.29928113373601
O           1.03700390878463    1.46452677212633   -0.28216956224045
H           1.06413823732990    2.78968153796954    1.31217156728824
H           2.57479834140481    2.59204408079685    0.39032723053417
H           0.05417072016896    1.51743357064429   -0.35933742648052
C           2.91559677634223   -1.06506561855715    1.13253935026948
H           3.33914936062591   -1.06696202565232    0.12325537155883
O           1.53059228403585   -0.81911248756774    1.10900612035484
H           3.43989492310759   -0.31692911864150    1.73467642011216
H           3.06222662983349   -2.04616660391033    1.58332598181364
H           1.37645554015192    0.04197493079923    0.65549593240211
