30
-41.184464098063
C          -1.11794174076971   -2.84757207689259   -0.25477782739229
H          -1.41294554926877   -2.64759358348225   -1.28855354877829
O          -0.57636609352915   -1.69683439442315    0.35204366501217
H          -0.40197589900384   -3.67317202054232   -0.24162342651200
H          -1.99854058774907   -3.13388723303347    0.31882749815720
H           0.22172243023844   -1.42819651188856   -0.16171461024203
C           2.76525580736666   -1.66790302214299   -0.95655940337030
H           3.00421734577230   -1.94056225098887    0.07603480819333
O           1.61102859690852   -0.86436934528962   -1.01948033538859
H           2.56328626796380   -2.57431394221301   -1.52863075612397
H           3.62426658247948   -1.15564833591891   -1.39567625661661
H           1.78929032900721   -0.02888716540857   -0.52332545486158
C           1.47687252549702    1.01005557136914    1.82282684596235
H           1.19653779524517    1.89407356444417    2.40134643917734
O           1.81717499712283    1.35512480868469    0.49971255693635
H           0.65299590744085    0.28937158435202    1.84701124302535
H           2.35729002086828    0.55606956678379    2.27720364258842
H           1.05545673977784    1.84106826930848    0.10595388398536
C          -0.37089512896082    2.13318094240585   -2.00733821729146
H          -0.08644213949094    1.10246410000897   -2.23434432513425
O          -0.44246195286380    2.34768767251609   -0.61691336452690
H          -1.32550740981425    2.35512502629997   -2.48983722822525
H           0.38827621392866    2.80698097007364   -2.39929012186633
H          -1.14626718990472    1.76128219754553   -0.26226720098771
C          -2.75407257900208    0.68314486245099    1.57489242115684
H          -3.41452909240622   -0.14175559149708    1.85669952656157
O          -2.21072989507281    0.48503893487387    0.29428498002973
H          -1.97058622022266    0.78174058592991    2.33247797620561
H          -3.33344270499093    1.60525548433014    1.54219147555525
H          -1.66978877705138   -0.33673198974403    0.30943761014496
