33
-46.270850488577
C          -0.23547511226537   -0.15079058310373    2.72661154986590
H          -1.12303198151534   -0.00664117223231    2.10272605051762
O           0.94327163344958    0.16515585388931    2.02077344860214
H          -0.28789989844881    0.52651206201161    3.57772087233866
H          -0.21384726032903   -1.18058816759799    3.09548991638172
H           1.03111772794772   -0.46070454742664    1.27744276165894
C          -2.53329820254332   -2.12058471207661   -0.27286468625238
H          -2.29305833443739   -3.15079758080403   -0.53608667910604
O          -1.62920673936172   -1.28790602968946   -0.95938488997219
H          -3.56401089320483   -1.91191676440297   -0.57033150465206
H          -2.44743804030824   -1.99654333557245    0.81141662627723
H          -1.83563928011211   -0.34808711043263   -0.72506065132090
C           3.33952981670256    0.98609621683026   -0.84745298269562
H           3.99598515589394    0.23207243418185   -1.29229842098143
O           2.02775573888898    0.88194450190627   -1.35126551248257
H           3.35774136488883    0.87916552008236    0.24152699595023
H           3.70717985234657    1.97553022271677   -1.11536914304789
H           1.66970346736486    0.01222650676225   -1.08955528728418
C           1.46254229673609   -2.73409148907449   -0.49348475252497
H           0.91962623984770   -3.48814991004727    0.08322899327691
O           0.94075212821806   -1.44539475082203   -0.26339413274019
H           2.50408000699588   -2.72465807661689   -0.17315215971915
H           1.41488164799525   -2.99364230168724   -1.55411903292091
H          -0.00709452079389   -1.42603268660017   -0.55661844060421
C          -2.81746016265974    2.05126808031512   -1.00677611921059
H          -2.30395507873652    2.16763195196439   -1.96607728092269
O          -2.08807478780947    1.22012684902623   -0.13590274093367
H          -2.97348463727569    3.03864560260163   -0.56549755855930
H          -3.78657620490786    1.58107265982176   -1.17509476578511
H          -1.21174220859284    1.66001655523654    0.04287615912660
O           0.30771784971875    2.26727378825206    0.31484286760365
H           0.88838014750532    1.98240618681351   -0.41288413682533
H           0.59295006949666    1.73806852947778    1.07905602249560
