33
-46.271192765697
C          -0.08548998421928   -3.05189565433406   -0.42878000227862
H          -0.99939346918334   -3.57985335415997   -0.15620336809744
O           0.00164025203858   -1.90888003459667    0.38910331633185
H           0.76731734887800   -3.71608522526295   -0.26780421847293
H          -0.12754952928364   -2.78158533208807   -1.48857100232518
H           0.82808429838318   -1.41702952651873    0.14490923135868
C           3.32758163031851   -0.68583167929574    0.36516632212040
H           3.60279479854581   -1.73838729447363    0.29279840663252
O           2.14226830085374   -0.50425184488560   -0.37102028169831
H           3.18490513946007   -0.42446778442590    1.41857302063119
H           4.13816382129822   -0.07788530298636   -0.04352950866159
H           1.89932640333730    0.46477510441585   -0.32699569577165
C          -0.11282008925495    0.66422638248128    2.87208571155161
H           0.22541762504629   -0.28701622794741    2.45157036780506
O          -0.46696992519639    1.57909446220362    1.86017163772997
H          -0.95477708241705    0.47586660193014    3.54565279122841
H           0.69779797074695    1.11648751491943    3.44170543009813
H          -1.12602640544344    1.15327547780750    1.28139990024203
C          -3.18762557082996   -0.54128236332063    0.18199151815628
H          -3.34260946492854   -1.01750753417717    1.15386469115038
O          -1.88047385124979   -0.02871226129449    0.06925912287692
H          -3.39657968418127   -1.26813843844594   -0.60834854014933
H          -3.87326781814276    0.29934867314545    0.08237962937740
H          -1.23204515114267   -0.76868243623563    0.18620878050632
C          -0.21402121680753    0.52069039613517   -2.88444901127363
H          -1.03298922408124   -0.03575472159578   -3.35026812172037
O          -0.69899828257799    1.48192968354493   -1.97466655083720
H           0.47029084265582   -0.18054642166003   -2.39673824440116
H           0.32828440822308    1.06130023772953   -3.65864295173998
H          -1.23169079534875    1.02441833216768   -1.29842727408697
O           1.35360637383522    2.00801008796869   -0.18084109257364
H           0.81776099142117    2.02259343059677    0.63185470960636
H           0.71018100187911    2.06397840043721   -0.90823339239591
