39
-56.445535935956
C           3.19724732512922   -1.01013238677615    1.38203343445463
H           3.33050863062303   -1.66954113025494    2.24320016013918
O           2.40938092404253   -1.62949586128950    0.38596211471646
H           2.75176472602219   -0.06770002552607    1.71280308496112
H           4.17282831617695   -0.80975539408869    0.94075783386464
H           1.53940379001789   -1.85537159756301    0.78050324182176
C          -3.55576239820881    1.45907363611337   -0.25906976317406
H          -3.96869024666386    1.98823445108314    0.59996823383456
O          -2.16105726996622    1.42568868363586   -0.10103443493582
H          -3.97974093562917    0.44988076394404   -0.29411191237127
H          -3.83734654920965    1.98973090877100   -1.17304647600587
H          -1.76667287954866    0.93862391934922   -0.87391595420463
C           2.66056452987599    0.47493938913107   -2.36798785999316
H           2.78774448029095   -0.40867606088543   -2.99782873581036
O           1.67883918805776    0.25450318053626   -1.38039210490196
H           3.62191674669379    0.73374906879652   -1.91590637499155
H           2.31898371852034    1.30615707768217   -2.98388758050509
H           1.96321752390049   -0.50649016614820   -0.81450682525455
C          -2.73094034346572   -2.76765938858705   -0.42258683859556
H          -3.13917849191923   -2.00416622215794    0.24760075468372
O          -1.41534812400561   -2.45942774448463   -0.81336275463681
H          -2.77946277672339   -3.73986040930776    0.07756412525638
H          -3.33503959565254   -2.80668855607219   -1.32809538512745
H          -0.86738538690286   -2.37014835879934   -0.00751434220458
C           0.77234822137388    3.17625186009900    0.47502173460676
H          -0.22661583578946    3.03215632405154    0.05495644911313
O           1.36862949115735    1.93787810424732    0.80271778377028
H           1.38872194069238    3.73366812921980   -0.23524713441606
H           0.69469711747135    3.74654500848679    1.39966585940412
H           1.46979315105445    1.42272566045049   -0.02303043311461
O          -1.03660003231139   -0.01445053650594   -2.02849809632986
H          -0.08162553353024    0.11455678718120   -1.92185216113162
H          -1.20788300788915   -0.92853422739067   -1.73662784540396
O          -0.04139667172985   -1.98469531566358    1.52306786324069
H          -0.29676283569607   -1.02746154008950    1.69778074621437
H          -0.17935193018468   -2.44998405986270    2.34895961253760
O          -0.65915667490861    0.48882731351964    1.96158810807455
H          -1.33581545566288    0.79796403166267    1.32751130963895
H           0.12878267260349    1.01824731118152    1.73648302842970
