42
-61.534112573657
C           0.38784012614532    1.09623022002626   -2.46505360554861
H           1.26976883218748    0.59994417117988   -2.05166324704799
O          -0.77496692046183    0.76661917256123   -1.74317492231202
H           0.55199416876302    2.17827164680212   -2.47045618111238
H           0.23489056097242    0.76214279678729   -3.49091615710240
H          -0.64473285193102    1.01288652931517   -0.79421715041950
C           2.19930800358144    3.33023952852218    0.48667480521732
H           3.27518678213664    3.49512924405482    0.43401673565031
O           1.99801459528222    2.05396036457401    1.04446756908714
H           1.75204883760834    4.10841313165611    1.11063738792219
H           1.77847589408915    3.39735402901393   -0.52134977668086
H           1.03229577176797    1.88807414601494    1.10005646045123
C          -3.82581373595007    1.67699772008534   -0.44156263687705
H          -4.83743470097837    1.29292354716926   -0.60093474493805
O          -3.31613297004482    1.26848712010188    0.80850667781217
H          -3.18098684977660    1.34607256184073   -1.26072668049693
H          -3.86122585484319    2.76566645646233   -0.43081683890791
H          -3.28979146930467    0.29080405881177    0.82175548518002
C           4.08826755683770   -0.46232678161114    0.08315984451862
H           4.78163020315977    0.35389337403509   -0.13514151004852
O           2.78135600049768   -0.14098626232406   -0.33308388115253
H           4.40072722183238   -1.34722161424263   -0.47120321089156
H           4.12101046516668   -0.67672641730757    1.15549262754704
H           2.49789019614883    0.66539928318275    0.16109895624413
C           1.74099515225717   -3.36786032770287    0.06682801912649
H           1.02795988006453   -4.17665808016729    0.22267986477062
O           1.00172437648623   -2.17250501780399   -0.03393990126068
H           2.43252887714518   -3.33386715504836    0.91293676148405
H           2.30394856738096   -3.56115027336009   -0.85015947433789
H           1.62692946427288   -1.42318928245632   -0.18063927660633
O          -3.02057092708528   -1.49438375513623    0.65315887828929
H          -3.73331011002897   -2.13288417668297    0.62825013368458
H          -2.47522241241403   -1.64646668631645   -0.16812405570133
O          -0.59263624814057    1.31988851294868    0.89301443849275
H          -0.52612981301208    0.45585452926244    1.36952384166901
H          -1.53091854827238    1.56967188287249    0.98828791788177
O          -0.60546306827202   -1.10596871998101    1.97987332153418
H          -0.02855065353847   -1.60000272417560    1.37535489328224
H          -1.51483407992800   -1.32593927878831    1.72263557348304
O          -1.42381532077339   -1.84436183039301   -1.39877357648442
H          -0.58190353031247   -2.12353846547725   -1.00605662546117
H          -1.26436314910280   -0.92470401458519   -1.69112644406656
