42
-61.535038119996
C          -0.33761312564804   -1.56711606726879    2.94125911604380
H           0.36706730222089   -2.40348453527333    2.91421903417244
O          -0.03992496812688   -0.62260623031402    1.94384965587630
H          -1.35412169213238   -1.95721251953476    2.83271739959947
H          -0.25182357422388   -1.06180725642932    3.90322744354467
H          -0.13600055323739   -1.05799764988249    1.05767164123550
C           2.36765189375105   -1.95728411359666   -2.28172944803235
H           3.41396885573212   -1.78275842378535   -2.52800415986898
O           2.27305814533447   -1.99766303977774   -0.87314046090686
H           1.75758947331091   -1.15125026505848   -2.69734623187654
H           2.05167001866212   -2.90708709402150   -2.72110381893510
H           1.33042799388996   -2.09167934008300   -0.64396266391263
C          -3.90348157361562   -1.52236717887597    0.95553804534044
H          -3.45524729417987   -0.90620648141370    1.74184563747602
O          -3.15842871983203   -1.45950506796507   -0.23549728519661
H          -3.91126974685710   -2.56347300671118    1.27640075803593
H          -4.93564631483733   -1.19517294970043    0.79634520265009
H          -3.09418276607497   -0.52091472929608   -0.50685193711915
C           3.19819656801092    0.17796395180812    1.61423911538233
H           3.53407305381568    1.12251821562139    2.04134021644940
O           3.10464359146187    0.36070657679299    0.21618090823265
H           3.92539083762105   -0.59971550326830    1.85749066614402
H           2.22727075959023   -0.08642435202597    2.03952841795412
H           2.85855115894624   -0.50347300952828   -0.18633888658934
C           1.81226435338841    3.25648839722856   -0.96837176019887
H           1.02227852090389    3.91892670429849   -1.32127511774093
O           1.19531357905977    2.08543819889167   -0.48506652691239
H           2.48843373558694    3.02992993829985   -1.79613161940192
H           2.37337043076876    3.75926617746974   -0.17652949450665
H           1.90589643663384    1.45906880517062   -0.18665002157584
O          -0.39835353568284    0.44130002090575   -2.04007522203923
H           0.20114445659635    1.06726489697130   -1.59661143266649
H          -1.29379905954715    0.74570812327476   -1.82707154312720
O          -0.43409969612589   -1.70745919107113   -0.46489788896420
H          -0.38516114113553   -0.95712063231405   -1.10703130073805
H          -1.38380015281222   -1.90873607140940   -0.40670176735994
O          -2.73101203836078    1.21980642790971   -0.72129249814584
H          -2.12991544725974    1.46178505577895    0.03736637703899
H          -3.38075445682092    1.91897512514467   -0.78502967174335
O          -1.01937208162439    1.80885684266914    1.17611973325446
H          -0.74700290276022    0.98221825348418    1.61497598319569
H          -0.23795828772662    2.07968684246549    0.66632991742313
