42
-61.534889980540
C           0.03631434301737   -0.69362540361574    2.90696519641005
H           0.11444917696645   -1.75269429979263    3.16716855670902
O          -1.02602113128928   -0.47320856889668    2.00752471303102
H          -0.18332712453741   -0.12315316178345    3.80895648348396
H           0.98797445224470   -0.35738258356044    2.48730395603282
H          -0.84003862598008   -0.97250895866323    1.17529419640127
C           2.22507570479301   -2.19749149966453   -1.88726295318691
H           3.30453340821109   -2.13106493214883   -2.02027398956686
O           1.97891973625757   -2.28990853381881   -0.49899750987935
H           1.74845692610806   -1.31305759520665   -2.31816140449177
H           1.85959332878351   -3.08632707248833   -2.40752547327250
H           1.00885463554742   -2.29378757641489   -0.37149675830889
C          -4.02310487672265   -1.45740678745223    0.58601731673484
H          -3.42689911634903   -0.97501110750784    1.36582499282896
O          -3.35964982562087   -1.42797449297186   -0.65861477586135
H          -4.16888292819432   -2.50549220040381    0.84408738387157
H          -5.00025623708751   -0.96977340200220    0.52468564696668
H          -3.22778872576690   -0.49220637226896   -0.91235336726262
C           4.07624941332172    0.08960724061561    0.77285837861545
H           4.34062560556878    0.99166887756273    1.32459214461164
O           2.67663057777618   -0.04799371558801    0.83330510357872
H           4.42270121408359    0.18785645777735   -0.26131543842570
H           4.57486507938700   -0.76654740018025    1.23329201179658
H           2.42845821982342   -0.88924039296304    0.37560548776861
C           1.97537048796738    3.04838172933627   -0.43358075042254
H           1.35166264086942    3.81411669239402   -0.89329272933357
O           1.14589244772624    1.94328006892767   -0.15791638934359
H           2.77667219057467    2.77734610625783   -1.12644183728098
H           2.41458096849659    3.44935394392670    0.48362766971329
H           1.69046437859123    1.23289563258177    0.25982544122556
O          -0.25797374911953    0.39925575724197   -1.99842728366694
H           0.26025858318103    1.02127450397948   -1.46119853906414
H          -1.17300536656376    0.72002249881944   -1.96178466048791
O          -0.66209298770806   -1.68885514627423   -0.37323077487843
H          -0.47550153095930   -0.95785321448157   -1.00931261982537
H          -1.60512769212326   -1.89180165293657   -0.51582158873541
O          -2.77682701625237    1.23952876485887   -1.17870273771319
H          -2.32714551883453    1.55088066568654   -0.34348347112787
H          -3.43640169295058    1.89942073766444   -1.39284489398957
O          -1.43234415360973    1.98652953962376    0.94358441837938
H          -0.53377204854885    2.14528225082331    0.61508275256185
H          -1.36364917622039    1.16237197758515    1.46750767352823
