36
-49.424352965711
C           0.58924968810013    0.31083352648759    2.64091709944777
H           1.49267214090472   -0.00509672586524    3.17092085859158
O           0.81971161053442    1.49747234240677    1.91343477151039
H          -0.18691834756721    0.53117457756640    3.37306486716247
H           0.25256833588492   -0.50120537139182    1.99085989542012
H           1.49394767453779    1.31020122268178    1.22414347969138
C           3.78477265252176    0.38297591613431    0.17489461625128
H           3.77326895380634   -0.50913082158122    0.80904117850569
O           2.48017626623187    0.79979297055001   -0.14757006602527
H           4.36445797519125    0.16702519896673   -0.72670562614523
H           4.26111510488064    1.20068910217471    0.71521076616275
H           2.03341238149520    0.06489392985890   -0.62729696742895
C          -0.31867863025742    2.91358659166018   -0.84033403154654
H           0.54202602215915    2.30495428126092   -1.12881454698577
O          -1.08929809189561    2.27530436758039    0.15409102174110
H          -0.96467483601587    3.06358093013593   -1.70509612431172
H           0.03749900710749    3.88580713184593   -0.48962392888898
H          -0.48591662056490    2.05480505586019    0.90038835885275
C          -3.66458737775651    0.10489694829722    0.10356914449802
H          -4.19360692490474   -0.82276570636914   -0.11544665266923
O          -2.39429945685918    0.01785957731260   -0.49800892750484
H          -3.58287347408166    0.22607530358572    1.18804827063677
H          -4.23526797343416    0.94323597867088   -0.30322011171323
H          -1.91662747817658    0.86393613081256   -0.31713420206173
C           0.43235126592094   -0.95840511158031   -2.48027630903675
H           0.04323691505280   -1.86634537934686   -2.95095577902397
O           1.19419640077982   -1.27318850299368   -1.33539353416058
H          -0.40377754188340   -0.29866074691550   -2.23508024841782
H           1.09615294118427   -0.45561847366310   -3.18266852489300
H           0.57991600129914   -1.61887957414269   -0.65132800988851
C          -1.41035999565495   -3.18982059025104    0.29315527927062
H          -1.73298622361652   -3.36399567257144   -0.73792350445880
O          -0.77797152282812   -1.94012026698209    0.42965496932390
H          -0.68451876209164   -3.95245973484401    0.57373095864182
H          -2.27865924819757   -3.26652307242721    0.95421781977707
H          -1.40524943439784   -1.23900795136256    0.12961547826127
