36
-49.424102014934
C          -3.23286679678959   -2.01722624495961   -0.19400721555324
H          -4.00285619444021   -1.76515307753812    0.53480639364296
O          -2.02060579047352   -1.47330140977702    0.26968074858644
H          -3.16702691934300   -3.10473198520621   -0.28146804570850
H          -3.51105338695365   -1.59817865039315   -1.16610170739826
H          -1.30981823917063   -1.71657947000672   -0.37109639156002
C          -0.03520930150657    3.32438137807430   -1.29622684324250
H          -0.95028627657995    3.59414120721724   -1.82951936770767
O           0.01305083999982    1.94084973648323   -1.04063922331341
H           0.82397069830902    3.56964088289500   -1.92049149167199
H           0.01843730012790    3.90323259021545   -0.36870977117519
H          -0.76636916957932    1.70036063530031   -0.48128548548765
C          -1.41045748423006    1.38250010740459    1.97437157276089
H          -2.04109358859926    0.89105372957312    2.71874811691048
O          -1.92634478378181    1.20315008779183    0.67338295010228
H          -1.40049792897113    2.45404611555460    2.17340555684588
H          -0.39078183661580    0.99366285828886    2.05499977662900
H          -2.02511628443676    0.23537608274377    0.51843369819086
C           3.21126536990359    1.54107870271304    0.23741867084336
H           3.95365565611669    1.15160044227142    0.93304232751402
O           1.95551716573947    1.05725883504795    0.65089577367330
H           3.24075551920580    2.63432645690898    0.26249737802614
H           3.45595605996887    1.20075430510406   -0.77332516626332
H           1.27549249161039    1.38714630483472    0.01977707205737
C           1.19026531824365   -2.12054732258648    1.76565729104251
H           1.16437749461955   -3.20875564283314    1.72497387479876
O           1.80463684513025   -1.67603588715450    0.57676028117159
H           0.16675831991533   -1.74286221375977    1.84961254589722
H           1.76168327253895   -1.81064670765901    2.64444947760806
H           1.89820660691892   -0.69973670703585    0.62808075496336
C           0.27094951481256   -1.16811285825649   -2.45216929777005
H           1.22601722644085   -1.39117322037266   -2.93494425295683
O           0.00087871318407   -2.09054068126443   -1.41882275014271
H           0.28654748180079   -0.14050929542455   -2.07884777805845
H          -0.52646341698975   -1.26909308644743   -3.18805452305731
H           0.73071339495998   -2.03945214992065   -0.76103992179616
