39
-54.510865432557
C           1.48585877149178   -2.57279218571541   -1.35822238420266
H           2.32872231040997   -2.49996835573262   -2.04429964123116
O           0.47508624803065   -1.72688632983646   -1.85332261132692
H           1.80661762631981   -2.26964223134837   -0.35695812093392
H           1.14922206758035   -3.61360551554197   -1.32115412802531
H          -0.26138137177634   -1.72615285579173   -1.21380650104622
C           3.75454512475552    0.28177807486998    0.77766393467672
H           4.42432304725736    0.92201992886860    0.20466514261601
O           2.44578021929766    0.73864301295731    0.54545324512575
H           4.01745666452690    0.34960130332702    1.83740477958696
H           3.88226740396137   -0.75442100802985    0.44731194561121
H           1.82179670605098    0.18039304307536    1.05708570996123
C          -2.38424369911173   -2.53436881750676    0.48422149989509
H          -3.12638531210551   -2.56665532021672   -0.31811551830132
O          -1.37963765742956   -1.58579773622230    0.20573394087080
H          -1.90088199621845   -3.50796534466339    0.56104090057477
H          -2.88744886986812   -2.30921866842212    1.42803596447359
H          -1.79089156877357   -0.68023824075005    0.18738715168502
C          -0.07100482258346   -0.03008626350531    2.84593464779623
H          -0.71087052310532    0.69599048176032    2.33816783943971
O           0.64506050944913   -0.81839532645625    1.91872969093796
H          -0.68703848865676   -0.65715434758027    3.49697434175622
H           0.66142964192748    0.49710157508421    3.45550575537953
H          -0.00633871116495   -1.22591657893067    1.31432933530121
C          -3.58566916348968    1.03991459103398   -0.51431530922539
H          -3.43224160437281    0.77246503444469   -1.56392573817488
O          -2.40469255438946    0.86473292928568    0.23447918485390
H          -4.34746424077973    0.38974733473262   -0.08326461272152
H          -3.93142453943539    2.07460942932181   -0.46115528049812
H          -1.71638648015319    1.47166705276447   -0.14675661001807
C           0.12783227773782    3.30410197207420   -0.05736011731663
H           0.83208377319715    2.74390656954023    0.56334298472888
O          -0.60002960563253    2.44569076871592   -0.90686353348548
H           0.68158252726355    4.04545596804803   -0.63949681627418
H          -0.58937723266212    3.81982221094843    0.58150317241873
H           0.05920391214258    1.91078557455701   -1.42439651978268
O           1.30233538947467    0.93334230157455   -1.97662639281710
H           1.00231261898274    0.01743280896343   -2.10342192975151
H           1.85087315705104    0.91788701648057   -1.17328859013515
