45
-64.689428864394
C          -4.23818945374380    1.43712484452439    0.56685558681421
H          -4.84316478614168    1.17879273921242   -0.30671483622754
O          -3.00296455216461    0.76381778176060    0.54539335398257
H          -4.09530834588326    2.52086365884541    0.59068483578445
H          -4.76259388445082    1.12674274077822    1.47040872060892
H          -2.49785655885348    1.03900773276995   -0.27414214648245
C           1.28600923225741    3.55874390147524    0.05047756605007
H           1.82274273278912    3.84922610573640   -0.85650901634089
O           0.80115205350760    2.23917665861801   -0.04742160287058
H           1.94867928339045    3.67266804713794    0.91254640576570
H           0.42309417057477    4.21168540277316    0.17659433679445
H           1.56619387117461    1.62740667772824   -0.16845020026061
C           4.15016588957741    1.17686919603552    0.20093532572047
H           5.00244547696968    0.51605668772996    0.02377809420737
O           2.95518255688910    0.59933080082468   -0.27175505183392
H           4.08827840070047    1.39462252928830    1.27132561648526
H           4.30497841163896    2.10577166927112   -0.34782847572459
H           2.81935397007217   -0.24922477000423    0.21418767405785
C          -3.15539736910869   -2.50854670424443   -0.52989232918711
H          -4.22003766634041   -2.34196517058952   -0.71689787593390
O          -2.77461920245573   -2.00543785290527    0.73184693751047
H          -2.96477753757624   -3.58094196590484   -0.51628071031756
H          -2.57170665595557   -2.04934203024144   -1.33283228309220
H          -2.95232370132795   -1.04362613080721    0.74023828709744
C           0.90404281286792   -1.08917609511204   -2.46286831897456
H           1.65890167607684   -0.42734018904069   -2.03025118275759
O          -0.32066044126039   -0.99392907934808   -1.77486229342923
H           0.71659154164427   -0.79471449431374   -3.49510292872316
H           1.27880731738863   -2.11741996181730   -2.45518763808181
H          -0.17017885892317   -1.20394870288030   -0.82056450833166
C           3.03062900005803   -2.92430698194404    0.54326295751192
H           2.72742833007126   -3.77327392611953    1.16156039155968
O           2.57547387511731   -1.70990969577446    1.08975684957752
H           4.11902349071357   -2.87934703921308    0.51478102292458
H           2.65313363903956   -3.07218157247138   -0.47324837553951
H           1.59480990144751   -1.73173072748661    1.12172005990877
O          -1.47273058901710    1.44584733804152   -1.48274374493232
H          -1.13129092420510    0.57272453065832   -1.76024759635648
H          -0.71368676977785    1.88230804062829   -1.06548547490331
O          -0.60681952715090    0.89643236935997    1.94596711121178
H          -0.12425098548817    1.48794287114437    1.34583578603353
H          -1.53807737039663    0.94220652858526    1.67679997907903
O          -0.10335476222447   -1.48480372791982    0.87222539536080
H          -0.97396918594169   -1.91821402421093    0.95055778736453
H          -0.21857314667039   -0.62449647191241    1.34522949167064
