12
-20.324807579353
O           1.13097030274015    1.53021817317973    0.04006278544188
H           1.37835779169008    0.57912153862351   -0.00947141258907
H           1.49692485585342    1.85508735221077    0.86402304188921
O          -1.53021891847781    1.13097007584888   -0.04006970008297
H          -0.57912195402947    1.37835798631551    0.00945960747621
H          -1.85509022710331    1.49691597280176   -0.86403309613789
O           1.53021791821036   -1.13097041506612   -0.04008308368944
H           0.57912165939704   -1.37835804637973    0.00946148348098
H           1.85507761466038   -1.49692221786231   -0.86404844047977
O          -1.13097019898538   -1.53021798047230    0.04008927062210
H          -1.37835838217591   -0.57912169381461   -0.00944815665832
H          -1.49691328179169   -1.85508137535847    0.86405690074897
