12
-20.322911993429
O          -0.93229292144885    1.28715463768366   -1.19731612449789
H          -1.59511544965949    0.98741171244097   -1.82118685496911
H          -0.13868537410873    0.72930350720924   -1.34634096401295
O           0.78962815222753   -1.08873924427024    1.25040016783726
H           1.45197722808410   -0.78551722494679    1.87309418043662
H          -0.00563421953106   -0.53317391988756    1.39882989462013
O          -1.22141288076011    0.71830068080533    1.42412566736582
H          -1.10593367603955    1.53729576691552    1.90813888632094
H          -1.20890559097769    0.96462029889101    0.47316556477322
O           1.07274716183951   -0.52591053254198   -1.37310117103308
H           0.95036873152907   -1.34552210096176   -1.85439379354903
H           1.06331606923019   -0.76980385079511   -0.42150853302322
