15
-25.400004226779
O          -2.63907594692844   -0.39666525904197   -0.12122708993884
H          -2.20083953158597    0.25718294685099    0.44325183385557
H          -3.09664049165021    0.09393258942410   -0.80560562275664
O           0.99891112350007    1.03957611718709   -1.33624254148946
H           0.40079815032451    1.54631941715949   -0.77572003541613
H           1.74012038811477    0.79973462623453   -0.76143314068914
O          -0.54850709903482    1.01114494808133    1.14910223072099
H          -0.17345608265434    0.16059982637646    0.85933127300475
H          -0.10832610550058    1.22984850383023    1.97133428427641
O           2.35677613788359   -0.40503662458742    0.72306017172486
H           1.62964137579905   -0.99966543047843    0.47940351742162
H           3.16061739815999   -0.92295496087137    0.67055219185344
O          -0.02044376351567   -1.33608890251444   -0.36126963358725
H          -0.98976206805802   -1.36295595970725   -0.34574652907478
H           0.21573120857152   -0.69714027248027   -1.05731766739793
