18
-30.491872282813
O           0.59979911080493    0.18166698377082    1.47045165626277
H           1.56350726366894    0.11833765302696    1.46265278679843
H           0.31242488910716   -0.67377421626321    1.09333770784787
O          -0.05407516413236   -1.98466401789192   -0.05723898904942
H          -0.62291339808920   -1.41011689844376   -0.63454051002192
H          -0.51080540856739   -2.82110264643320    0.03039404300401
O          -1.96021853176089    1.19792094252633    1.00718411250011
H          -2.57554317846839    1.07228277416433    1.73014268079235
H          -1.08146898324650    0.96853553464575    1.34681049013364
O           2.56060334312703   -0.74154396734956   -0.28424052007243
H           2.33537680058761   -0.06110827454478   -0.92643036151065
H           1.86637038701234   -1.40881120495759   -0.35885803618331
O          -1.48757491454216   -0.18990363004645   -1.36333864569405
H          -0.73929071582210    0.38412526080146   -1.60000319083889
H          -1.91887540992737    0.27644013188108   -0.62806654594484
O           0.69450365091620    1.46198071815497   -1.01452078859513
H           0.45513921624899    2.38843961735419   -0.97111755150391
H           0.65323293195902    1.12245200681828   -0.09873217274951
