26
-49.945425107135
C          -1.49869649295852    0.13139133599289    0.03963927678584
Cl         -0.86599429076273   -0.44307662966374   -1.49800676841500
Cl         -2.22238743846073    1.73231565113196   -0.17752160446987
H          -0.66356518676959    0.21127422629843    0.74380677085499
Cl         -2.70042462129763   -1.01082881802011    0.65625390570646
C           0.97979881058968    3.06757147238676    1.18641887253321
H           1.97997792866340    3.50952912169092    1.18297609486514
O           1.02039971776200    1.70960292605221    0.82165436828213
H           0.33247242326654    3.63484238079127    0.51207444987911
H           0.57192990370156    3.11677392450998    2.19519145574928
H           1.40950341119721    1.63184201030338   -0.08268815329942
O           2.10595684733680    1.16497591981792   -1.58031307832953
H           1.41410719572776    0.82284663479927   -2.15136163355714
H           2.64751830042099    0.39720600095424   -1.31943805200083
O           3.32387771809536   -1.12623316369923   -0.71237977433071
H           2.61264489700295   -1.81739585820674   -0.73056283009565
H           4.13980098584641   -1.57002416684098   -0.94672869202589
O           1.31094134273835   -2.84016101630175   -0.74473096868033
H           0.90929882170353   -2.57022252425790    0.11513481521465
H           0.64735085793347   -2.64907921115459   -1.41305237971254
O           0.39742908243088   -1.87035731253891    1.57839550817297
H           0.33405755660781   -2.48688950218085    2.30986478101996
H           1.19105529661613   -1.29987053251639    1.76806431643283
O           2.52108294685468   -0.33284702305196    1.85428170626227
H           2.07261153316777    0.51239401218543    1.66741571100163
H           2.98682783513339   -0.56487861873446    1.03336089101149
