29
-55.032864657577
C          -1.49978737223753   -0.10971974743288    0.02336962866348
Cl         -1.63413160516235    0.74445341108573   -1.51941212478568
Cl         -2.82246115148081    0.37316113408000    1.09530597774003
H          -0.54339911396686    0.14978479639000    0.49058260272304
Cl         -1.56175868709736   -1.85058767126859   -0.25995530348544
C           0.39183525712712    3.27454104852187    0.17301030900614
H           1.24721276599521    3.95362300633224    0.10808762444168
O           0.80841487486881    1.93599473920423    0.29655395631026
H          -0.24170658251667    3.41230421427077   -0.70765369250397
H          -0.18476878759593    3.51406194943981    1.06554926061463
H           1.31994791423267    1.68921437000104   -0.50117354582515
O           2.22743722535192    1.05223728652635   -1.88129208738497
H           1.77607976699422    0.20519619110171   -2.12337083316124
H           2.50371581054625    1.45752932805796   -2.70390241156231
O           2.34909089663079    0.66067462805754    2.19952294126886
H           1.83972167364913    1.33006940959059    1.71588053979037
H           3.02259281330131    0.34778502900248    1.55660347463856
O           0.63410945838258   -1.28849119133904    1.98449674694260
H           0.56621505012801   -1.74751094947848    2.82237147544628
H           1.27592147996341   -0.53458219813726    2.13932735619359
O           1.06127288589910   -1.27695645487855   -2.35605817244763
H           1.37331539587040   -1.77811092113213   -1.57582262034535
H           0.10207699409778   -1.28021560836801   -2.31207679835679
O           1.88824931112591   -2.45137671949269   -0.04647713317163
H           1.86125449640986   -3.40028201574420    0.07887780722909
H           1.36691376338009   -2.04932062073409    0.69256364798879
O           3.73118774253367   -0.29520663453059    0.08667324228310
H           3.36931242212915    0.25986230989262   -0.62052861947560
H           3.28784855913570   -1.15024040126884   -0.00619445300414
