23
-44.856591394066
C           1.09971162516071    0.55759368058830   -0.67570171791251
Cl          1.77258559249367    0.36057534561087    0.94677133461672
Cl          1.78904791614072    2.00129931458162   -1.44776155815327
H           0.01156502667239    0.68004891330482   -0.59404254279260
Cl          1.45193219186555   -0.86906643382896   -1.65717888758563
C          -2.30506984929003    2.34796278439748   -0.04522733159390
H          -3.27007230713361    2.43854982901088    0.46045076013214
O          -1.80679299099724    1.03250299594463    0.04547785165374
H          -1.60437641389557    3.06383234671195    0.39170410063636
H          -2.43162291721552    2.57409690531478   -1.10409184321910
H          -1.68557119967649    0.79960472034531    1.00740722823810
O          -2.77884045786454   -1.15109462303606   -1.27928061516384
H          -2.46467543904984   -0.31548919001166   -0.88399812760524
H          -3.65067063041585   -1.31427916348027   -0.91261730305115
O          -0.68324351607553   -2.22553844799016    2.26840641696704
H          -0.73904189612101   -2.48604956238062    1.32055677408871
H          -1.16298415791340   -2.90116095347352    2.75017193068412
O          -0.95012455670580   -2.88888374518748   -0.31033640015642
H          -0.15886613027282   -2.77807630217993   -0.84238101279823
H          -1.63327808006946   -2.31684487530329   -0.71853552824166
O          -1.31712628225730    0.35241843178038    2.55779647624033
H          -0.49397098202789    0.75093536157516    2.85146202306140
H          -1.12424281722070   -0.61415234345846    2.49699848531222
