26
-49.945109158008
C           1.81062009214620   -0.49504582846266   -0.05603682831201
Cl          2.94705833064700   -1.83658221618818   -0.26774542980664
Cl          2.45043962381096    0.66340300309112    1.12295270122752
H           0.84573789975144   -0.88115467093579    0.30432072757128
Cl          1.54799351746814    0.31567821876192   -1.60275844787702
C          -0.58052873959223    3.06090448879867    0.06126477870164
H           0.10252826900548    2.31314590479572    0.47219967672733
O          -1.82580325024646    2.49061129619539   -0.27764878227927
H          -0.15467041205158    3.46948257478138   -0.85383912175672
H          -0.70402100045148    3.86887455141126    0.78648482073464
H          -2.19821654045052    2.06766618531814    0.51921170817434
O          -1.84703648064304    0.25367669874773   -1.78156115094083
H          -1.83805586603395    1.14105549338613   -1.35583773849624
H          -1.21879982234526    0.29011293005808   -2.50413259559019
O          -2.60276530839362    0.73686688905024    1.70011314158187
H          -1.96557068909392    0.05632023775022    1.36792347152092
H          -2.72190730567475    0.56905930686151    2.63527402093896
O          -1.08029420714936   -1.07960857125382    0.47103240147350
H          -1.67320647526318   -1.85049159240858    0.57539762719654
H          -1.31242345412320   -0.70409101219034   -0.40304183928051
O          -3.17316736015890   -2.78037863734834    0.50650427719616
H          -3.71379245716438   -2.00427247739481    0.23357242198867
H          -3.40801655916335   -3.49534728631740   -0.08445266331192
O          -4.20850356817198   -0.43548439473364   -0.30814786801318
H          -3.62608566001818   -0.21730947270570   -1.04722025121780
H          -3.90769409711477    0.12211429512855    0.42596485838541
