14
-29.599778846962
C          -0.71235315524387    0.13653067837554    0.16243892273582
Cl         -0.77250057143945   -1.50503539573072   -0.49446472895528
Cl         -2.34137541608759    0.68570413570985    0.58200850202980
H          -0.07430829756268    0.14569688966776    1.05785575297302
Cl         -0.01202241166969    1.23009359458981   -1.04022702373129
C           3.22562077439365   -0.79536895799633   -0.75689355644662
H           3.70034188538686   -0.64941139924253   -1.73046083443884
O           3.06959440422549    0.43383050506899   -0.07696574767090
H           2.26458964121368   -1.29772316672376   -0.89494367608701
H           3.86895255745496   -1.41652613171030   -0.13672659463884
H           2.48493864814314    0.99985739469343   -0.59784200566231
O           1.49719987808477    0.20282599396274    2.19602591827646
H           2.18015185698310    0.23266967295236    1.50253530083252
H           1.84510807071101    0.69309940232801    2.94240607309508
