17
-34.683548809883
C           0.97874115732358    0.11044641908607    0.18369706956398
Cl          1.26582091119276   -1.63309401915571    0.05852175518876
Cl          0.34326020158128    0.72054836461362   -1.34900726500225
H           0.23660491798012    0.29968474937177    0.97108646419367
Cl          2.48719521565055    0.94903796784781    0.57958251900594
C          -2.59172077675465   -1.85098889109400   -0.60363655451040
H          -1.61817648325694   -1.58562334466883   -1.02667184370369
O          -3.11718905493687   -0.80406029642295    0.17876461920320
H          -3.29755376132640   -2.02349526133019   -1.41474128996677
H          -2.48831224161511   -2.77101161897614   -0.02193190735303
H          -2.51835457408446   -0.63652360981250    0.92541302088689
O          -2.66106997643170    1.91301490796779   -0.17887440683997
H          -3.10972680407173    1.05750479772327   -0.29078338230760
H          -2.05879927642748    2.00368189499977   -0.92162587385017
O          -1.42717438413558    0.73248285927167    1.91015878532639
H          -1.65978184166979    1.07825624591954    2.77309377698760
H          -1.84346122195611    1.33092356719519    1.25084093268122
