23
-44.856970312986
C           1.39352597231272    0.41673964191271   -0.49304308891826
Cl          2.43847503164983    1.82167042632622   -0.77171806065217
Cl          2.21588446640554   -1.06023360145869   -1.01459476778998
H           0.46884178063278    0.52996419380902   -1.07367177778288
Cl          0.99043111553924    0.30105512467297    1.22655600554374
C          -2.35291616689205    2.24956137615852    0.48682204058439
H          -1.34900660005532    2.12425989083536    0.90313695213484
O          -2.85779397125743    1.03206863915439   -0.01032076837412
H          -2.32259908555316    3.01335035156880   -0.29486765896395
H          -3.02645348838149    2.57793098926321    1.27718315999298
H          -2.27985051456753    0.73311854958563   -0.74611126080160
O          -2.96369876093836   -1.03624690921333    1.75421468006686
H          -2.93572324252619   -0.24905981190341    1.17150918406266
H          -3.83135544498101   -1.42520468863321    1.63439306772075
O          -1.21994638604318    0.20141037769546   -2.03277389187729
H          -1.59075653053240    0.36199848253792   -2.90196022667491
H          -1.16837199057148   -0.78578078883110   -1.93504063638777
O          -0.90160118264674   -2.56351009265901    0.94585482669404
H          -1.67525361798176   -2.06852677954034    1.29412001928218
H          -0.13047453978301   -2.13505124102476    1.32376080512752
O          -0.94609652493467   -2.39515984048635   -1.70964240283049
H          -0.99431203583391   -2.53251538541774   -0.73288969409377
H          -0.08741987261868   -2.72903551738673   -1.97628426479402
