20
-37.838977064406
C          -1.43958021860264    0.14823208501751   -0.60681004643661
Cl         -2.84136282993575   -0.65180894190367   -1.33321408669306
Cl         -1.70964199269176    1.89589787236869   -0.53342143624548
H          -0.54895147050789   -0.05017533177284   -1.21705296585128
Cl         -1.16761276701257   -0.48438660993883    1.02270925610445
C           1.76559239154433    2.17726095905404    0.88170547995215
H           1.30460077101584    3.08282704251534    0.47863702849706
O           2.53736185906811    1.51493777362586   -0.09415491853742
H           0.98130286621731    1.52746333509880    1.28177921076757
H           2.44480551945161    2.45407417240813    1.68671490375764
H           1.96117972430588    1.26906159034006   -0.83688885426467
C           2.54381381844623   -1.88826706729140    1.03552260217238
H           1.60967369808288   -1.45499480618804    1.40477091648634
O           2.99540898559795   -1.22804706125696   -0.12620385773123
H           2.37023729027789   -2.92830772880261    0.76323598957651
H           3.29521878997575   -1.84965955037225    1.82859321860920
H           3.14188373603556   -0.28612756248762    0.08567377103623
O           1.25137346963062   -0.23484306025068   -1.96457271422632
H           1.81785022667940   -0.78362730427277   -1.38322552989165
H           1.57052683314050   -0.37320608504599   -2.85775597690324
