29
-53.099241751511
C          -1.66238300098647   -0.20101468465893   -0.05287921827059
Cl         -2.58784003304383   -1.65208423483329   -0.47571828497426
Cl         -1.88402715410357    1.02479722144432   -1.29510103122414
H          -0.59744349618020   -0.46066142695413    0.02152026062924
Cl         -2.20561729245866    0.42727833180567    1.51643014496719
C           0.81840818176105   -2.71785499117242    1.18748393114630
H           1.74070284694235   -3.28736528641165    1.33686818763523
O           1.05993157911495   -1.54702309368135    0.44175123396966
H           0.38003412718550   -2.48144170298978    2.16201487916900
H           0.11388112660838   -3.32533729823572    0.61975883210059
H           1.68302956726741   -0.98509513994460    0.94427819844524
C           0.51690263508548    2.85719649784946    1.09002209517048
H           0.15640623108834    2.72751996091632    2.11447849612416
O           0.80185475722625    1.61120661084921    0.49433678491071
H           1.39719530187067    3.50797559325620    1.09539002092820
H          -0.26870051845918    3.32315208990927    0.49543611101014
H           1.53617555252832    1.18853210186463    0.97743058819451
O           2.48063076875944   -1.06888963509663   -1.93306154028845
H           1.91351008583355   -1.43684259200651   -1.23915749726654
H           2.06999134355193   -0.21925781696527   -2.18757253470533
O           4.37531204087996    0.12220168782338   -0.54524334549495
H           3.78020646053141   -0.43172197795856   -1.11949464666083
H           4.46296191065816    0.96043323210864   -1.00438696711881
O           2.88515248287063    0.17897088810238    1.60321415549390
H           3.43402645842104    0.10123072973194    2.38648678786583
H           3.50502229038246    0.17296527490702    0.82158012385075
O           1.35016683513559    1.39668973960162   -2.17699871601269
H           0.52021962145526    1.46485936278425   -2.65536539614610
H           1.13531460256768    1.54346135303230   -1.23356362106710
