32
-58.188080231680
C          -1.57777924873878   -0.19938209246379   -0.04404745455342
Cl         -1.39999165777858   -1.95199157650318   -0.10341414811544
Cl         -2.78738019028626    0.32234468973400   -1.22504166399226
H          -0.61809687665081    0.28304590064054   -0.27387495294828
Cl         -2.07551860540749    0.28882292364749    1.58635392207274
C          -0.15665024295212    3.26868651639093   -0.02453974629499
H           0.54021307524846    4.09640638260510    0.13292897568523
O           0.48761060350130    2.02562587262854    0.11492258532659
H          -0.60957312759111    3.36794209892371   -1.01495108125631
H          -0.93995603618710    3.31458344012730    0.73175077157428
H           1.21940148709196    1.96557565643091   -0.55581492562201
C           0.68154434282906   -1.53549971843116   -3.01678421846823
H          -0.04858857716052   -2.31076761668922   -2.76917723178022
O           0.95733470626491   -0.72031817295694   -1.90359375850604
H           0.26521847724486   -0.89074281516513   -3.78942302834279
H           1.59089870380882   -2.00958378135910   -3.39998022253255
H           1.31222681616436   -1.27624032096283   -1.18043966803627
O           2.06089111179434   -2.10460125090859    0.21263527286283
H           1.56740301747648   -1.83016942695490    1.03633172046162
H           2.15536079030869   -3.05627990852270    0.26968765054020
O           2.47736113605394    1.54089815279188   -1.57800238373119
H           1.98979696562014    0.78597293163744   -1.94897944724347
H           3.12604972861077    1.15135236219513   -0.97430462264555
O           3.83243611027936   -0.02193303027305    0.33690342274380
H           4.69663522106602   -0.33056278672684    0.61144272014373
H           3.25976181395570   -0.80970821745717    0.25125183034139
O           2.02414076869921    1.10020110079211    2.18705239257970
H           2.78090022182382    0.87005718659276    1.62620132514426
H           1.39679047331285    1.54847767643726    1.59151064101561
O           0.90745357291659   -1.28465970634011    2.40657142570411
H           1.32280715540121   -0.38632063717831    2.47397771189168
H          -0.04094770053025   -1.14081437823669    2.43249013332759
