32
-58.186389360266
C           1.53493885429472   -0.05890809565244    0.12554376073637
Cl          2.16027548644540    0.18131371051322   -1.50816525803571
Cl          2.30647713579339    1.08322370837851    1.22850734427975
H           0.45693978838918    0.12557752481923    0.11721931564578
Cl          1.84500353678507   -1.71234867159668    0.64544943122244
C          -0.35011163472867   -2.20774130061652   -2.41966656417059
H          -1.13051253276030   -2.83506500610561   -2.86178819920567
O          -0.85944124594614   -1.41404762857892   -1.37430159820574
H           0.41695203469921   -2.84639915642726   -1.98509302467413
H           0.10266646302621   -1.59146286882499   -3.20099146367331
H          -1.54465543377279   -0.82059667015928   -1.72406906156504
C          -0.27920614610892    2.85979213324015   -1.27279632312681
H          -0.99452394619638    3.63743258972842   -1.55881803858475
O          -0.90722446656417    1.82620066117949   -0.55178931570663
H           0.21289661343683    2.47521935415289   -2.16978268049088
H           0.47274548930234    3.29281000121759   -0.61522942860915
H          -1.57374837886484    1.39335999052618   -1.11815388006701
O          -3.81557435212421   -0.27512301310472    0.62759179715342
H          -3.12191651853110   -0.98061509914361    0.82976276248454
H          -4.65738964039269   -0.65239096774355    0.88472391578735
O          -2.95417787408215    0.41859146302369   -1.80764052936020
H          -3.33803866195174    0.17653254758554   -0.93283326229097
H          -3.67565422983831    0.74913062657679   -2.34473314694624
O          -2.15616795735769    1.60630406091084    1.90121267659497
H          -1.65816269512634    1.90541958712763    1.12352325965986
H          -2.87453491612906    1.06041042649135    1.54512244508587
O          -1.95902328555096   -2.01894520279672    1.08159566544102
H          -1.36299122106882   -1.54939049000629    1.70120614644563
H          -1.48106790150607   -2.02314028638293    0.23570521461048
O          -0.46788631296533   -0.34706170868745    2.58285979108036
H          -1.04815323150376    0.43632711353701    2.42706183980589
H          -0.30774965671613   -0.38400071627182    3.52604034599435
