32
-56.254939866678
C          -1.58139329314919   -0.25735057334059    0.30036030956696
Cl         -2.45945898057305    1.16506783514645   -0.27546962832836
Cl         -2.52018555435289   -1.71679969752773   -0.03782501411055
H          -0.62012619330225   -0.31881737407433   -0.22251936544284
Cl         -1.28338676002078   -0.11971562511613    2.03595519121159
C           0.90417069016998   -3.19455545739878    0.34340669906284
H           0.53139959869873   -3.62262306833313   -0.59152040145023
O           1.08748934929924   -1.80305657897443    0.23032876188832
H           0.16362892139158   -3.35524707019324    1.12531507491667
H           1.83380900886656   -3.69814661733891    0.62435301068951
H           1.75275316098455   -1.62137365374177   -0.46123166052769
C           0.34464595533660    1.35293684836229   -2.81117560204948
H          -0.52939805062074    1.96942857665906   -2.60616413753032
O           0.69187790892119    0.71523524085458   -1.60302190704098
H           0.09075163394509    0.62316589364390   -3.58424896702315
H           1.15764021352399    1.98959827688647   -3.17280339267147
H           1.46914014756057    0.14166935361786   -1.75327830682224
C           0.65391153914645    3.14792248684412    1.00880161382050
H          -0.33609968602978    2.76213114173974    1.26659110637880
O           1.52817887933307    2.10965735438286    0.63391854754936
H           0.55025375769833    3.88790703231233    0.20969908899113
H           1.08728724341189    3.63007367416839    1.88411325537020
H           1.16063913123331    1.65820034803488   -0.15296423227757
O           2.94374989287296   -0.85234255330817   -1.59905925129521
H           3.41088629412615   -0.29042084173880   -0.91452016420612
H           3.63055265703119   -1.22967246993006   -2.15015696587243
O           2.29101936576435   -0.17034407808328    2.13912621330825
H           1.83845775366786    0.66750774614641    1.96722480364452
H           1.78320281663197   -0.83991390066325    1.65231409679474
O           4.00308407373292    0.63630492801754    0.26447427898861
H           3.57489629150844    0.23830303156189    1.05953536273571
H           3.60507140821219    1.51149866680557    0.21022741337090
