38
-66.434735298330
C           2.11414916427905    0.22715316009718   -0.10769049429300
Cl          3.15540003172475    1.40643553434999   -0.91616843208095
Cl          1.98699837581170    0.60675341967326    1.61290618339311
H           1.11509339693734    0.26140512613546   -0.55759837945937
Cl          2.79452926253838   -1.39237340787812   -0.30525275001765
C          -0.31286103942566   -2.67452739588475    1.59709791155865
H          -0.36618815331163   -3.58941297569474    1.00124066509468
O          -1.10300992299413   -1.65266322962080    1.02942518514793
H          -0.71087760694454   -2.87243191248825    2.59126378870125
H           0.73037544209083   -2.36285724731313    1.68321091430494
H          -0.76518282539270   -1.45070663986102    0.12602487211753
C          -0.06347957433748   -2.17135672729514   -2.36468225829524
H           0.05049018724006   -1.85448296571175   -3.40420830350930
O          -0.42572308430104   -1.08291981353322   -1.54186903166037
H          -0.80941884806565   -2.97010002178928   -2.31515394119316
H           0.89094855132927   -2.54873829582021   -2.00204920205103
H          -1.30057192011071   -0.76027226731406   -1.84240999406389
C           0.12243601697256    3.30956048798036   -0.22338444242068
H           1.04034113609527    3.30106408329767    0.36338101603473
O          -0.39854484183669    2.00145423921973   -0.21627547006790
H          -0.57919634719831    4.01892884812797    0.22386844142715
H           0.35366500169056    3.63355311718271   -1.24190176863942
H          -1.27948724002533    2.02261589475456   -0.67453963105725
O          -1.42617181040035    0.91484467604596    2.06264546719680
H          -0.93508737293243    1.38500041395567    1.35964856093859
H          -1.24254365848352   -0.02475932275118    1.90473841347596
O          -2.87629808851913    1.99431476315043   -1.20428470646024
H          -3.36811492424919    1.83562414281419   -0.38130643227953
H          -2.94996493650473    1.16826410783133   -1.70813535270020
O          -3.04464282473588   -0.59768985090305   -2.16266087686628
H          -3.63322959228238   -0.94892228872589   -2.83121215227556
H          -3.37856248282213   -0.93368025697271   -1.28307342191279
O          -3.89517628623402    1.17778977987092    1.25298385439616
H          -2.97159798501412    1.11674844349425    1.63205763218590
H          -4.43559295999467    1.60179639932581    1.91950810417309
O          -3.76655739235915   -1.35878716757863    0.23549430912559
H          -3.98442061603898   -0.49705167782523    0.63628373605438
H          -2.92790083914302   -1.62480921234822    0.64543874023383
