29
-51.167135222983
C          -0.03889798322310    1.46069397571829    0.60533072810366
Cl          1.15688285166337    2.50073682174092   -0.18515172482116
Cl          0.71608975052520    0.56938751796750    1.93599760795765
H          -0.43815916948620    0.74914937252073   -0.13176370349091
Cl         -1.37749418343933    2.44516393732268    1.21966980204753
C          -2.41078854404772    0.26391521066594   -2.16604267672320
H          -1.95957503726109    0.98406066849719   -2.85241974986540
O          -1.42574786507941   -0.37740721100467   -1.38695439929205
H          -2.99214227251053   -0.46230530202846   -2.74091146187255
H          -3.07364295855732    0.79181426448372   -1.48074488921388
H          -0.78188679748934   -0.82853621799855   -1.99241796237258
C          -2.64009523423245   -1.44558972011737    1.67586717762189
H          -2.73515826629135   -2.12878889629708    2.51881413600857
O          -1.90169095736170   -2.11583568873982    0.67879163936027
H          -2.13036882615818   -0.53685612824978    2.00742738079775
H          -3.63911498394029   -1.18385126826013    1.31722928558917
H          -1.81187768269938   -1.51817079694294   -0.09247212048618
C           3.10356156051614   -1.12884310348684   -0.65101316202567
H           3.66342972119501   -0.93776617013453   -1.56584365598566
O           2.15443230139028   -2.12866770880446   -0.94361009886151
H           2.61997166313898   -0.20312077696379   -0.32753438816823
H           3.79459917425756   -1.46010404923254    0.12797014963491
H           1.65199397003102   -2.33068049561777   -0.12043972725488
O           0.35566502784631   -1.66587451705459   -2.88004194348690
H           1.08723775158805   -1.78162383996991   -2.23224701092958
H           0.12819349261314   -2.54878840314234   -3.17641713070715
O           0.68727000475453   -2.74593464002336    1.24727284766097
H          -0.24871688119515   -2.49903738155910    1.09674118937352
H           0.68701300368151   -3.68123666244103    1.45690079500762
