29
-51.167747754163
C           1.00637750282113    0.09209211517944   -1.12238014861523
Cl          2.12377061689253   -0.95802366011914   -0.26259927296490
Cl          0.22587627601371   -0.80259312440987   -2.43492944660429
H           0.23852459325134    0.45631699495548   -0.42677643487980
Cl          1.88580051154635    1.48293073446224   -1.78808201782733
C          -1.25775414016375   -3.08821526703729    0.14795016548150
H          -0.34917146081310   -3.68481944998381    0.21463851056989
O          -0.92205327434054   -1.77518327126333    0.54813691018918
H          -1.61811005910446   -3.10126940857319   -0.88345223636328
H          -2.02082476625539   -3.51671788491014    0.80317935623915
H          -1.72954301260402   -1.22418736782559    0.49792397091663
C          -3.49991474522217    0.09653883869107   -1.07083990988295
H          -4.17433335951677   -0.74170095027215   -1.24845521165637
O          -3.02847419919987   -0.02081911578022    0.25200989806676
H          -2.67761060515793    0.05333294431590   -1.79338927871677
H          -4.05175632453039    1.03145315549442   -1.21678005653415
H          -2.42011129455202    0.72832054622501    0.42266696028462
C          -0.86508939338983    3.11758116169044    0.34345211114896
H          -1.09563693245639    3.25253698128658   -0.71394436920956
O          -0.97171934932996    1.74045478707438    0.62372465129854
H           0.14762287132628    3.48089614593456    0.53647377668801
H          -1.57148401680238    3.70215071851737    0.94068825062669
H          -0.73799935288824    1.58892724522707    1.57131219340591
O          -0.37339704539212    1.15243368715759    3.17041864579420
H          -1.05942217483419    1.02465051720371    3.83227298629149
H           0.06295017553800    0.27490892265272    3.08304164350092
O           0.67845493120705   -1.27906195141206    2.72975783514085
H           0.10613154596784   -1.55971137289816    1.98958466229896
H           1.56754453223299   -1.21535968990128    2.36370299660614
