29
-51.167028705412
C           0.15159091948665    1.36682781980303   -0.66687469321618
Cl          0.62507850842638    1.02251405002315   -2.33081901172992
Cl         -1.51545044998741    1.94038553521540   -0.62004655996688
H           0.24645992467308    0.44589486997977   -0.08133038032798
Cl          1.23420514989743    2.59700985097348    0.01506907000039
C          -2.05050558095269   -0.45759356871352    2.29154518745546
H          -2.84685181771336    0.15300994303901    1.86989048377228
O          -1.99187686806897   -1.64859555168963    1.53901106453911
H          -1.10748186424441    0.09403847892336    2.23777709088464
H          -2.27887254549223   -0.67029372107894    3.33862090644776
H          -1.23842879788581   -2.18330348422751    1.87708433580246
C          -2.55148261373690   -1.41166425727183   -1.86882540158189
H          -2.24599185663835   -1.24654882758032   -2.90181220741207
O          -1.39921928784404   -1.30062477813762   -1.06833779463618
H          -3.29456065803475   -0.65816476203092   -1.59497823233997
H          -3.00261482011230   -2.40464211336030   -1.78137528228706
H          -1.66132713001855   -1.42447056259337   -0.12557890256847
C           2.98737264174660   -0.66793609451110    0.76717999203360
H           3.09066919836063   -0.11737791280256    1.70021015965605
O           1.63319653080909   -1.04086603840645    0.65109382887937
H           3.28989759745239   -0.02317832894452   -0.06254397355537
H           3.63957086621620   -1.54529801189387    0.79300329056861
H           1.51475236234263   -1.55569969735674   -0.18561438964113
O           0.31778392001601   -2.89869520993054    2.17812626220545
H           0.88037241605775   -2.20245777281362    1.79042061442748
H           0.42193418129574   -3.67005783619762    1.61417571726731
O           1.03529432360521   -2.30719539982202   -1.63682523965857
H           0.09085203615499   -2.07071895655550   -1.52177874336298
H           1.33656276034902   -1.79227321269020   -2.39032961762883
