35
-61.342312971545
C          -1.51823847769625   -0.21800173394739    0.03598905488452
Cl         -2.54227571111324    0.67055698680176    1.17014155631139
Cl         -1.98446764810509   -1.92239702038975    0.01226662058513
H          -0.47445907913867   -0.14146087599844    0.35975494587494
Cl         -1.68629933218322    0.45885517255167   -1.57666785748834
C           0.70537664619285   -2.29420648218465   -2.46770463407317
H           1.56866082018958   -2.48463902208268   -3.11315096534347
O           0.98422525413929   -1.29210584839374   -1.51815818855536
H           0.40915535665532   -3.22656017999118   -1.98085671442385
H          -0.12454149267058   -1.93590089952670   -3.07534256741083
H           1.71572436392308   -1.58915263310894   -0.94131309958718
C          -0.37952275703615    3.60702903724984   -0.18910838578319
H           0.32940785582371    4.38081508181883   -0.50074506149160
O           0.27801141154202    2.40536623525632    0.12847708772147
H          -1.11810241125545    3.45686765723561   -0.98225683589598
H          -0.89254324820956    3.93826196572277    0.71265960299057
H           0.74508470152425    2.07614945963609   -0.66690383490322
C           0.50508271923248   -1.80857841822041    2.76167606997609
H           1.28853163100811   -2.07863348578934    3.47625751090259
O           0.97480968914662   -0.88260613388788    1.81154836678168
H          -0.31317271004959   -1.32912526445146    3.29715000124181
H           0.13061349818341   -2.71617137070315    2.27995610804619
H           1.70662883667662   -1.28661447540648    1.30312033892669
O           3.66450827217795    0.80679055152011   -0.08453878230345
H           3.13145784728269    1.12530202805993   -0.82446207921053
H           3.24532855303361    1.19161112173828    0.72349515736061
O           2.16527984218395    1.63286872445701    1.96547138419579
H           1.74211353690990    0.78483017135900    2.16977101411073
H           1.48875365967436    2.12079959050400    1.46776211423696
O           1.60444553265290    1.28864913292551   -2.01772321212735
H           1.32314628658367    0.35657097178067   -1.89057418602083
H           1.30817431357967    1.54605227107226   -2.89220473551915
O           3.06055343740102   -1.69825066300391    0.20783585651945
H           3.85203927332109   -2.21264767284291    0.37034732740061
H           3.36474859945965   -0.74667074420495    0.08818892844488
