35
-59.410798936580
C          -1.85587068072478    0.40723495949999   -0.02093801409786
Cl         -2.79523669761212    1.37625604308499    1.11878916897993
Cl         -2.89196090940817   -0.81350918841840   -0.77052213373193
H          -1.04835838892701   -0.09933038848312    0.52076212266668
Cl         -1.16755438798141    1.44589491395469   -1.27256961621656
C           0.69544358352069    2.73899238848249    1.59824740841320
H           0.14779580282737    2.75762012787916    2.53954548038683
O           0.85247738140994    1.38818600237791    1.23755058440991
H           1.66381604953633    3.23061956115636    1.73892165947056
H           0.12397243166704    3.28662182707657    0.84402781334599
H           1.31277300111422    1.34020686525142    0.37232513886866
C           3.39754968468533    1.94170976909603   -1.29199291947556
H           4.04971528391232    1.59389520124189   -2.09790158754953
O           2.39158275041236    0.99950757225478   -1.00665408226036
H           2.89876194599744    2.85567125604810   -1.61223352912232
H           4.00756277437530    2.15675119569640   -0.40858058351032
H           2.81241677187540    0.16775975140109   -0.71051443001531
C          -1.14066882850243   -3.10899137346733    1.53475136058194
H          -0.55257208160994   -4.01575611313607    1.70300030764915
O          -0.32165881212517   -2.03906950183135    1.12518658009305
H          -1.61465190469000   -2.81149219502859    2.46944215217205
H          -1.91557725488831   -3.31821174674438    0.79290548295266
H           0.12078096384342   -2.28488128216759    0.27899195169423
C           0.74860687565990   -1.76690883058139   -2.23254756346108
H           1.40881668462784   -1.97132396980172   -3.08002013361993
O           1.13139987356824   -2.52712185087292   -1.10455022298527
H          -0.26473075089002   -2.06838005312505   -2.49375893653598
H           0.76460209337511   -0.69666809833996   -2.01569856285638
H           1.99080509742927   -2.18846669732403   -0.78272342926306
O           1.89791779465675   -0.91738431454711    2.25764792592532
H           1.60060030811907    0.00058220704638    2.13269936399917
H           1.09918027459135   -1.44251303977135    2.06886753056278
O           3.31191138844107   -1.34202067225349    0.10537352980657
H           2.81958396190740   -1.19795027200585    0.96722122985424
H           4.13908954593379   -1.76630892194813    0.33641657167033
