32
-54.323046405254
C          -0.44283459870966    0.50231295616767    1.29640523715146
Cl         -1.72022167071905   -0.31360279995495    2.21102569764772
Cl          0.97865867444761    0.72187924245500    2.31984123347947
H          -0.16832365573958   -0.12316039445064    0.43902284379560
Cl         -1.02166767845257    2.06872683237870    0.72126767225223
C          -0.37804470957795   -3.23972668531412    0.30776596108719
H           0.23579469483210   -3.28003391698667    1.21157855078379
O          -0.13557511618218   -2.05670360065781   -0.41842219499348
H          -0.17791271109468   -4.12588170372760   -0.30119199935521
H          -1.42861104416583   -3.23302975236153    0.59589868677678
H           0.81767597682794   -2.02581918108204   -0.66987569355907
C          -2.95807445190450   -0.56088360035085   -1.70248818199534
H          -2.70720913419281    0.17927639144739   -0.93748680977298
O          -1.80286458063220   -1.04093298372032   -2.35291930243139
H          -3.51809114032055   -1.37708469870445   -1.23881383423344
H          -3.58108735952802   -0.09064877189415   -2.46204292585530
H          -1.23736810700116   -1.48750885233893   -1.68964999160604
C           3.30803820070124   -1.74147490614989    0.20092918887306
H           4.27258203049267   -1.25260144883597    0.03801990218631
O           2.48316008000007   -1.62735233976696   -0.93691911451250
H           3.47720481094214   -2.80414758918365    0.37263994398328
H           2.83382538506870   -1.30372222601982    1.08428164676684
H           2.27388970758123   -0.67574699716673   -1.06855715428707
C           2.21366107194263    2.08776149804120   -1.01468276456742
H           1.53809821346138    2.94531115260038   -0.97144641292096
O           1.49471709890858    0.88133319538534   -1.11796830887839
H           2.89877304321483    2.21702214258078   -1.85852327685207
H           2.78938254406726    2.04315006968155   -0.09032824641350
H           0.92838129306790    0.91897873252603   -1.92610203166406
O          -0.04726225248235    0.78121850847520   -3.31845056557713
H          -0.77281224416332    0.19431928713245   -3.01671904443782
H           0.35994486284238    0.33228331362167   -4.06142234639276
