38
-64.498836498710
C           1.82062368813814   -0.21753532981606   -0.00166403485925
Cl          2.45219323494056   -1.79223198778358   -0.51912143105566
Cl          2.95444198443385    0.54330945364023    1.11710203828177
H           0.85980911095427   -0.36885855494857    0.50226001629452
Cl          1.57853253542949    0.81037034770463   -1.41086836014590
C           0.44820574175321    3.24913162802297    1.11918666913208
H           1.00165481832883    3.48283344545824    0.20503756758777
O          -0.06449760759434    1.93949924189351    1.08323530953524
H          -0.34918471297543    3.98695256134844    1.25365769270954
H           1.12831425089287    3.30362891944117    1.96810986667445
H          -0.66945550041245    1.85787278672111    0.31740357801690
C          -0.21223740262098   -2.97266127093150    1.70544749497902
H          -0.90480581940818   -3.38227538181752    2.44617889338977
O          -0.66158268559891   -1.73005856279028    1.21649579304174
H          -0.08654928753550   -3.69514717344525    0.89400696569582
H           0.75351211696886   -2.80178711601069    2.17892256365779
H          -1.54105040473834   -1.85426510136238    0.80145894623981
C          -1.89786294340696    2.60878724620136   -1.97665923383022
H          -2.02470262807154    3.56479304345795   -1.46950205476841
O          -1.86302227835733    1.60640372186183   -0.98456317447667
H          -0.96566926309394    2.62518873837510   -2.54816508312202
H          -2.73498012508836    2.45282626207910   -2.66038060540659
H          -1.81362105583767    0.72987214921493   -1.43462403027498
C          -0.88688741015106   -1.62813082051919   -2.46815674938626
H          -0.27742869373974   -1.84714748274397   -1.58839594842227
O          -2.00417622723044   -0.83477453327889   -2.13481685623381
H          -1.19948553637399   -2.56841459525818   -2.93107453644318
H          -0.29110431613486   -1.06302447716067   -3.18307735739018
H          -2.50715304443314   -1.29109405421601   -1.42983520072627
O          -3.56447736663585    0.56884388807939    1.02208216776137
H          -2.94578970534736    0.56993696641292    1.79104800408561
H          -3.14324181928855    1.12669380842440    0.35224349492171
O          -1.56269923565970    0.40845318199941    2.79047420961585
H          -0.98303708962448    1.09652574018742    2.42477126158719
H          -1.18457542402021   -0.42132883883342    2.46061560109457
O          -3.17809070378619   -1.83009975971886    0.12455969692798
H          -3.40489351795518   -0.91416518226322    0.47577051938264
H          -3.94311037336855   -2.37934292871739    0.29921061768508
