41
-69.584931960889
C           2.18275345534862   -0.39291427563542   -0.11760498140338
Cl          1.57130331409285   -2.03045312254023    0.10035304198560
Cl          3.16290624674596    0.06175413016916    1.28952963452316
H           1.34135033567791    0.30762130054263   -0.20160865896050
Cl          3.16180927926785   -0.30480227921699   -1.58476940941152
C           1.22725617071632    3.13365692215103    0.66895303938383
H           0.70671138018440    4.09369356722590    0.61535974037502
O           0.39652858034889    2.07997580379298    0.24396631926645
H           1.57227618441729    2.97296581926583    1.69398323263648
H           2.08998030351867    3.15791251755989    0.00330691937444
H          -0.41612228640329    2.06347780223037    0.82329062404512
C           0.06778057180966   -1.50122937387867   -3.23481142840805
H           0.65242596096460   -2.35911613726566   -2.89068493548214
O          -0.21789402551095   -0.62160764032005   -2.17499474787476
H          -0.84891889977532   -1.86076803783241   -3.71365402898433
H           0.65420659640512   -0.94429718274237   -3.96410610603313
H          -0.72172491450356   -1.10474230610211   -1.48878624350040
C          -4.78367829609409   -0.83780168787334    0.74744241505403
H          -5.13642698918750   -1.86242019315845    0.85965293503691
O          -4.12665085175184   -0.75699814740084   -0.50237402800506
H          -4.10202728057207   -0.59935163513329    1.56824061165571
H          -5.64180045158302   -0.16353549688393    0.78194134771849
H          -3.86960221692550    0.18142284868291   -0.64976082049357
C          -0.44720184125239   -0.95135269689007    2.95469391161030
H          -0.23540833675252   -2.01744159718449    3.06750635936466
O          -1.60905495456356   -0.73903679290575    2.18496783857677
H           0.42136738963166   -0.46032561307526    2.50738336559275
H          -0.63348268387367   -0.51961589617034    3.93706212750201
H          -1.49714766863773   -1.17276581449039    1.31547632448158
O          -1.75572717426969   -1.93561287582895   -0.30909244538615
H          -2.65565605102770   -1.54080558705709   -0.43476940854280
H          -1.86192592030001   -2.88717969229049   -0.35111461465289
O          -1.87182775902367    1.93974134634026    1.59529805979136
H          -2.50490944102750    1.94490455020441    0.85834118891650
H          -1.85390324833362    1.02260724321424    1.92355758130270
O          -3.33188208551590    1.81645933762005   -0.76815059279380
H          -2.48730036639651    1.86091662229663   -1.30781489608923
H          -3.90615377489792    2.49654198870327   -1.12180150943319
O          -1.07646881373690    1.96253879728530   -2.05905443321043
H          -0.81307691201518    1.06301302566356   -2.31912273203610
H          -0.46267351284760    2.18116342525004   -1.33328739469278
