41
-67.653937303769
C          -1.74677462038852    0.95408527002928    0.48607251975007
Cl         -2.97296257685849    1.63077464862786   -0.58928360474881
Cl         -2.53033159417468    0.08245062665676    1.81788728768176
H          -1.11795472241154    0.25112497486621   -0.07536257040256
Cl         -0.73679572083287    2.24126874163013    1.13809550395786
C           1.96065554650963   -3.88092389309128    0.48250994468665
H           2.97484711372100   -4.13053262093041    0.79170683844869
O           1.93255359308850   -2.49637408745639    0.22041155767057
H           1.71022152812465   -4.45520148131324   -0.41318082481520
H           1.26586654915777   -4.14606801590674    1.28455144428756
H           1.01562522460880   -2.23912634860289   -0.05269429575677
C           1.19455189929365   -0.38013916993762    2.73495802681608
H           1.38544379134380   -1.10330023546526    3.53299674030657
O           2.28442299029958   -0.31829886257211    1.84079680585822
H           0.27156458962470   -0.65240113723076    2.21752802631350
H           1.07999579051851    0.60905549492239    3.17490605665698
H           2.33050711616761   -1.16997724306406    1.36196725820200
C           3.03194800794989    2.52942209480952    0.03043356675098
H           3.99150449679676    2.32148563723003    0.50852437227974
O           2.35926169507529    1.33239012399390   -0.29454839684213
H           2.42555905501361    3.14939143934770    0.69660916268398
H           3.20653017933238    3.06749929419795   -0.90070651138737
H           2.25661520318340    0.80177302056414    0.53036540230755
C          -0.01225722201683    2.85678128358499   -2.42195601167206
H           0.85004145710371    3.12846720444078   -3.03932269667808
O           0.11624471590367    1.55476718333591   -1.90475074951016
H          -0.12401470332839    3.59272563365852   -1.62054739033353
H          -0.90884362558945    2.86867317169496   -3.04028359890169
H           0.90363647817440    1.52181282633230   -1.32455346433449
C          -1.56333286556902   -2.54948378332119   -0.71403707702051
H          -1.86611788255797   -2.80232923466823    0.30238946426075
O          -0.47542366315172   -1.65794748280591   -0.62518079015470
H          -1.28376132924624   -3.46340960776775   -1.24549956563120
H          -2.40689333632527   -2.08524092446316   -1.23043949407044
H          -0.18328248702659   -1.41974089039467   -1.56198500230941
O           2.92382824356616   -0.91611604652625   -1.91110537673980
H           2.80923377155281   -1.57957914134290   -1.21587682136184
H           2.89755199582463   -0.05981865603469   -1.45927188608828
O           0.42889054678242   -0.95241544030909   -2.96072796189008
H           1.39144552956698   -1.00711265342111   -2.77848554181772
H           0.21335215651630   -0.00906281750011   -2.88024716157136
