41
-65.717490264458
C          -0.00165089730706   -0.00119843176535    1.36033867303864
Cl         -1.50293273547110    0.71997668711830    1.93615139660544
Cl          1.37359305976298    0.93703890958818    1.93808211666405
H          -0.00103514169842    0.00009820939047    0.26758550849938
Cl          0.12328800234185   -1.66265808929423    1.93423815660379
C           3.15397532111325   -1.61426145791763   -0.33147680924913
H           2.86529530545678   -2.41079200141571    0.35983034851236
O           2.02439024359015   -0.93064403447618   -0.82033697219831
H           3.74311532808989   -2.04589069369971   -1.14676254632133
H           3.76545460387836   -0.88910656713670    0.20523424636692
H           1.44172835929074   -1.57619305513993   -1.28324605430915
C           0.25378331078176   -3.96205408718812   -1.22733495388767
H           0.22281761191630   -3.85319956417638   -0.13868516795834
O           0.26591276550162   -2.70852667328797   -1.87028168262024
H          -0.60236596046675   -4.56230065327610   -1.54842279680104
H           1.17056756948247   -4.47946808292680   -1.50903553086432
H          -0.53867433489370   -2.21743893309468   -1.59869166717399
C           3.30796042402356    2.20176219227987   -1.21722900866474
H           4.25694063215092    1.76065474271795   -1.53542503198682
O           2.21837862572206    1.58486499067797   -1.86305906009012
H           3.29809830733548    3.25431687687526   -1.49935869814655
H           3.22609387029126    2.12089839840684   -0.12877757817734
H           2.19497562647659    0.64260914034760   -1.59117752586838
C          -2.97368257259032   -1.92317115830059   -0.34082084213481
H          -3.64177553208424   -2.21471750767242   -1.15735623872401
O          -1.81686490435966   -1.28470750707316   -0.82706415811675
H          -2.65139018124940   -2.81719789491853    0.19271056593038
H          -3.51947348587164   -1.27754123945584    0.35270125921122
H          -2.08472432735864   -0.45572992281186   -1.28701343572090
C          -3.55806202744048    1.76517015733744   -1.22171142839691
H          -3.44776814283276    1.73343476290846   -0.13323351419390
O          -2.47854193934681    1.13090190776012   -1.86763132452693
H          -3.65047985312509    2.80792538671747   -1.53874534928056
H          -4.46442827896794    1.23057009409983   -1.50502906526099
H          -1.65101848378910    1.58137214678919   -1.59453812992904
C          -0.17746784330456    3.53914401324168   -0.33226177582924
H           0.65464495434317    3.68706274481564    0.36157325619449
O          -0.20396463333562    2.21899117611422   -0.82092385249469
H          -0.09528963454018    4.26492650184481   -1.14746865289186
H          -1.11275892066813    3.70680348128192    0.20152684171691
H           0.64772345598456    2.03671379744638   -1.28125834484081
