41
-65.718164882487
C          -0.76289035368935   -0.42082427958646   -1.79388342204348
Cl         -2.49855821289507   -0.14159390142705   -1.95675096063804
Cl         -0.44343204054865   -2.14111440758424   -1.59499702455002
H          -0.39683703837366    0.12169047680549   -0.91378538603278
Cl          0.07908418356147    0.18244622387744   -3.23428520325947
C           1.77530400003448    1.29911454482587    2.98829057488728
H           1.17818770703643    2.17510975792274    3.25276487707602
O           2.44725679211449    1.49125136152515    1.76089393134485
H           1.12473424426902    0.42085854715570    2.95076988033971
H           2.54011252831951    1.14646449947525    3.74838067760877
H           1.77377173117887    1.68906950610072    1.07867912211118
C          -2.55252688855310   -1.69544535867519    1.41185701026050
H          -2.40377869854602   -2.61704931440951    0.84304104448835
O          -1.49727549460541   -0.78866156648450    1.19401483079415
H          -2.65228935466457   -1.94308280147439    2.47335844782365
H          -3.46932007294295   -1.21568325059193    1.06961205665661
H          -0.65463981608740   -1.22049952599545    1.46665031325744
C          -2.92924523656720    2.30540411413698    1.16918214340866
H          -2.89139657318179    3.39324145574050    1.11915302486502
O          -1.69216304505121    1.86619292819228    1.68403837609203
H          -3.11072345936611    1.90413897722559    0.16778465199483
H          -3.75386712893354    2.01109746437036    1.82426773668201
H          -1.68673140333939    0.88387163929363    1.67202074282627
C           0.84175839022201   -3.41337615394317    1.77676988270166
H           1.77401701916183   -3.82265448192060    2.17296904791405
O           0.81425292633797   -2.01018861925970    1.89617479412546
H           0.00741266257189   -3.80687205676075    2.35734024070404
H           0.73074237258482   -3.72540477908663    0.73321263776960
H           1.60405778927862   -1.64941098713022    1.43000945144744
C           2.98379537479371   -0.69934018813746   -0.70539367500413
H           2.17903924449281   -0.01378877418584   -0.98297980958032
O           2.99411783611869   -0.94366320999216    0.68235081143657
H           3.93797579471453   -0.27808507241524   -1.03468853463500
H           2.82939161508439   -1.65577619766928   -1.20379503691041
H           3.00616890980115   -0.07418680385233    1.14055389177135
C           0.39310129244404    3.01831401718808   -0.86579986591478
H          -0.53628047162694    3.10039035537361   -1.43610993091592
O           0.38028507559553    1.87828964444035   -0.03595564659687
H           0.53669977150798    3.93154587565960   -0.28214218738088
H           1.22532873888482    2.90410935688204   -1.55929015573620
H          -0.36110554799651    1.96746631894670    0.61162176392905
