23
-46.789741681356
C          -1.60160769905464   -0.47223354967345    0.07383211265095
Cl         -1.41529997905219   -0.92528663212597    1.78001573641578
Cl         -3.02773878197358   -1.29273364993534   -0.62108064064693
H          -0.69565666012441   -0.76727826020822   -0.46970445649272
Cl         -1.81784520333005    1.29209655331269   -0.05910635931881
O           1.69345368854282    0.02783614874257    1.67400227781348
H           1.47904810910134   -0.45479926011155    0.83097168536779
H           1.19649310223997   -0.40206362125835    2.37115230289419
O           4.19556970518112    0.05114042822297    0.29639108520782
H           3.72707174895745    0.54133626898759   -0.40833514685666
H           3.58844276988859    0.05757821047227    1.05098845486200
O           2.53035530128496    1.37722103151707   -1.47866679454770
H           1.99706775662747    1.86084238306632   -0.79932942204615
H           2.79419811454547    2.02920116939856   -2.13046465547742
O           3.55489166367186   -2.38713447417541   -0.68313842104380
H           3.94998455867316   -1.57498778975913   -0.29460525729647
H           4.14499860234048   -2.65041082818634   -1.39044133753399
O           1.20624259051674    2.46421535363229    0.56104177114878
H           0.25411038225558    2.45274533617340    0.43285894135141
H           1.41515836541582    1.70776279939689    1.14191616543107
O           1.22449739301610   -0.99669094879420   -0.76850586013881
H           1.93439925388250   -1.66974788426721   -0.77253671984786
H           1.59306802052964   -0.23342632000426   -1.24019047985524
