23
-46.790371532891
C           1.71525882593233   -0.02305716949917    0.33898501224457
Cl          1.82366262068642    0.43125220342306   -1.38262264060784
Cl          3.17896636184227    0.46014313499558    1.17679744331293
H           0.83501414603731    0.46780053796421    0.76443953818308
Cl          1.48528763731009   -1.77752226059717    0.46382844858941
O          -1.55934101191415    0.07731902463387   -1.62936496259400
H          -1.33148529287289    0.39703585189753   -0.72491022705477
H          -0.94233030536880    0.48273186588657   -2.23975133555615
O          -4.13862514952211    0.48671929681014   -0.42417443761602
H          -3.86157236512400   -0.13970970617962    0.26627944624853
H          -3.54344200331526    0.33078811292118   -1.16917753918521
O          -2.91184996668605   -1.26579897627597    1.39094610726217
H          -2.51376135222711   -1.79887057072598    0.65522220528713
H          -3.30354962888015   -1.91040919353973    1.98277766580866
O          -3.04788847084624    2.68880968179764    0.64915644223754
H          -3.57220798433578    2.00256808977144    0.17411350135675
H          -3.59050679002840    3.00706045323090    1.37176800622106
O          -1.69594971092300   -2.46049773233627   -0.65796655827376
H          -0.77148699772449   -2.66633564602770   -0.49311186855336
H          -1.68797900654535   -1.65415046167481   -1.20989080694829
O          -1.13457218728410    0.81271073220180    0.92708305312643
H          -1.69551613667650    1.61592750978171    0.89924423950161
H          -1.69525090525469    0.12250343375803    1.31849886329794
