23
-46.790670126057
C           1.66898983351001   -0.04103120930317   -0.24052725138316
Cl          1.80947237931235   -0.54787610185667    1.44954025455289
Cl          3.05587752529121   -0.63930794075335   -1.16899819555715
H           0.73860991849757   -0.45006732248742   -0.66224798201579
Cl          1.61175972652543    1.72390899980669   -0.33730369986774
O          -1.57714077988268   -0.09360456375325    1.64403884144677
H          -1.39072797196523   -0.44907256248334    0.74026724299752
H          -0.92277325397816   -0.48135452250998    2.23134184687003
O          -4.14292180228398   -0.40508332349022    0.40780898692290
H          -3.89121090207269    0.25408885792958   -0.25733757703945
H          -3.52667251453452   -0.26769899936903    1.14031581727168
O          -2.84279886587977    1.32070597927415   -1.38325423808350
H          -2.43525123344061    1.84489551960152   -0.64867930771789
H          -3.21614361214558    1.95455950274754   -1.99556168817690
O          -3.15670521831684   -2.59714214574726   -0.73327585409082
H          -3.66636356085297   -1.90976723789690   -0.24846429623582
H          -3.73714884601982   -2.92784294526472   -1.41708397285165
O          -1.57722439612465    2.44211547315526    0.66673106417071
H          -0.64705588535001    2.59278106001885    0.48260401188320
H          -1.61791246823127    1.62703974416514    1.20425976880308
O          -1.14409660725441   -0.83400098316705   -0.91861246190238
H          -1.72857253505090   -1.62224917363140   -0.94257723469302
H          -1.67462939918290   -0.11698868226448   -1.30274055347422
