23
-46.790364580480
C          -1.54632306675778    0.08472070942714   -0.52165306366928
Cl         -1.75546180544419    0.61325114077260    1.16155550986598
Cl         -2.99403300505532   -0.78170244934043   -1.08042713561052
H          -0.65795146776317   -0.58894564098840   -0.57427648216749
Cl         -1.24826611743898    1.50831400067470   -1.53846285939565
O           1.27158834482407    2.26526183425518    0.87114130982549
H           0.32314404673722    2.36476686075421    0.74877939835579
H           1.64598790510519    2.05190520623069   -0.00873373665857
O           1.18044846817565   -1.18319625309780   -0.45450089096774
H           1.39860581705513   -0.95825661199790    0.46628046268219
H           1.88123270333664   -1.80869897630737   -0.72724259889733
O           3.50301627495097   -2.44360514592517   -0.96863309020391
H           3.92808043275232   -1.62737134875366   -0.61673344128467
H           3.91378226260560   -3.17913132985435   -0.51488712594527
O           2.02826925648018   -0.06093564609734    1.92481487322566
H           1.74695784441545    0.85091131171013    1.65706147212535
H           1.89021063354632   -0.12055912852073    2.87146591151618
O           4.21233739586699   -0.10204673714557    0.14006613513528
H           3.81794311006995    0.54500134933240   -0.46207463687821
H           3.62548735882950   -0.11668486410525    0.91295778550116
O           2.16342050897583    1.10783693395385   -1.43332244889355
H           1.89099231394153    1.28828185834555   -2.33185533077268
H           1.76656135501799    0.23537811153655   -1.18571324396610
