34
-71.328150462068
C          -2.75833110835800   -0.93388023300541   -0.00315094348935
Cl         -2.33932383895053    0.44100596283044   -1.03293798748367
Cl         -2.74199094945042   -0.43324132069644    1.69343259859867
H          -2.00660385513649   -1.72100937745374   -0.14511318798996
Cl         -4.35997836864498   -1.55188550043340   -0.43210177811335
C           0.86799942059652    1.87511517386462    0.12014056340020
Cl          2.45140228689668    2.00916541180983    0.87801001590173
Cl         -0.40152697853867    2.23435187789988    1.29695516454096
H           0.75206356756855    0.85145170226029   -0.25348329595794
Cl          0.75562011631151    2.99325400889691   -1.24856302347894
C           0.86019365712144   -0.06826464809809   -3.18358025819486
H           0.81528541311067   -0.92648331273793   -3.85963786416526
O           1.20989955288919   -0.46406951579151   -1.87646197605357
H          -0.12517444947346    0.39165587153827   -3.12338346891545
H           1.57155767622840    0.66298231852035   -3.57568756714374
H           2.08714676026297   -0.90712510181857   -1.89543325250441
O           3.59554910183105   -1.75850014504608   -1.71851439146371
H           4.32928702739178   -1.84413969221328   -2.32873675015263
H           3.98162146854559   -1.38602202247861   -0.87812115749205
O           2.85838102035623   -2.24758194776385    2.16035777838575
H           3.00942097102153   -2.38568000337480    3.09613834512620
H           2.06190813401715   -1.66596634381821    2.08039002432773
O           2.16638770828045   -3.66903823084712   -0.20440211193088
H           2.48845403030819   -3.38410410530252    0.66285774798592
H           2.68903401256896   -3.16671481873952   -0.84826848839402
O           4.42685671539929   -0.70704158222430    0.54859093022474
H           4.04314757817933    0.16668276879470    0.66586921998650
H           3.97314990911765   -1.28944351115261    1.19072353733843
O          -0.10809807882248   -2.26295396137133   -0.32065258929153
H           0.21725503061773   -1.64471154693146   -1.00095909447529
H           0.59199613561943   -2.95486759852573   -0.27118142791389
O           0.66822469848147   -0.79714656247871    1.74635563244102
H           0.29405431618445   -1.36608890913067    1.02272752704320
H          -0.06830988035911   -0.57829860347968    2.32209136601452
