28
-61.150669412324
C          -1.64442331044172    0.90861103859886    0.00625806596992
Cl         -0.71334623596717    1.29278326796268    1.45888469956060
Cl         -3.18560604646642    1.77336086452854    0.02826041486044
H          -1.84474777225566   -0.16361670715855   -0.01514084231052
Cl         -0.72710245201136    1.34443898295351   -1.44025659364078
C           2.37842700737023    0.09864655964673   -0.11767760437825
Cl          3.81465247067594   -0.61757400203491    0.63015463842358
Cl          2.39796212695663    1.85296452022035    0.08904701813847
H           1.48373611230987   -0.32318704746431    0.35608556190771
Cl          2.34249181420984   -0.30327883909546   -1.83962617291314
C           0.97402010558523   -2.99201927910379    1.29571129106895
H           1.27268102025167   -2.79193609340102    2.32756592403186
O           0.21338727448822   -1.92175776337662    0.77400959403232
H           0.41218947512658   -3.92904345225462    1.25853102900109
H           1.86714986227821   -3.08743559920785    0.67949028192433
H          -0.60833343964108   -1.83878655816924    1.31333633859107
O          -0.51243783876661   -2.15299368704426   -1.85199784626079
H          -0.22068337298509   -2.16019114560116   -0.91971247865400
H           0.09827627815159   -1.57317729770464   -2.31411110731502
O          -3.05699697335373   -1.33003491625663   -1.89542426930852
H          -3.49856219648704   -1.72634887743725   -2.64818354046020
H          -2.13252918662795   -1.66808834844276   -1.91302683552437
O          -4.20801196191213   -1.46992300271245    0.52734004274515
H          -4.62564174382395   -0.61196100409635    0.63043708302186
H          -3.84775503576212   -1.48397951950502   -0.38573716077517
O          -2.09905307384207   -1.78217426682006    2.13709749116886
H          -2.90136006467341   -1.69958865687590    1.57151095741845
H          -2.33017421773793   -2.39557867848326    2.83590639247253
