28
-61.152529654659
C          -1.55148892616321    1.54717937775749    0.01864222870199
Cl         -3.25820514506457    1.28649321776635    0.39796715555343
Cl         -0.61786322347282    1.64950974575791    1.51699573125924
H          -1.19669883099121    0.69474143778868   -0.57635983691723
Cl         -1.36033215233716    3.04003220716648   -0.91500048324054
C           2.62116694018364   -0.44720593426609    0.18343521529482
Cl          2.39266433446812    0.02416609459795    1.87345411906687
Cl          4.34486679471750   -0.45180645671817   -0.21500017609575
H           2.20578364218292   -1.45043968604075    0.03802233675924
Cl          1.75926337137286    0.67889738980286   -0.87370720961250
C          -1.79121754489106   -1.36658954314282   -2.75412614824874
H          -2.75426225646956   -0.89188629194577   -2.95938995832773
O          -1.37117799930158   -1.10815337296366   -1.43264284298869
H          -1.87254769955409   -2.44091703914282   -2.93743791259532
H          -1.03724512332161   -0.94499736931542   -3.41722680655851
H          -2.02738613084874   -1.49477037039036   -0.80688637500144
O          -1.46706941048653   -4.45574504503662   -0.04505781363485
H          -1.47382876181307   -5.00800944125893    0.73854381506765
H          -2.13277023560364   -3.76755871108841    0.10171306304759
O          -0.71543870449477   -1.70764058924137    2.04835653303056
H          -0.10655340641540   -2.04932105142464    1.35577058572722
H          -0.41678234417601   -0.81906620386662    2.25612270919458
O          -2.88639924790305   -2.09276445043068    0.58767197476458
H          -3.61419922344598   -1.52596174021960    0.84953898814385
H          -2.15847745189028   -1.93387930981074    1.24105713680350
O           0.55296458160211   -2.60491466422313   -0.15839907304369
H           0.05669155863677   -3.44395354207414   -0.18977152431262
H           0.06248975065728   -2.01937026386037   -0.76280825094925
