31
-66.240120499797
C           1.10565376914601    1.61621015074877   -0.55103222933398
Cl          0.01968254076205    1.46813292529534   -1.93879367072896
Cl          0.92072789365746    3.21275565401463    0.19973797381363
H           2.13773525060620    1.48585681248101   -0.89485319695510
Cl          0.75526860593484    0.36486805870578    0.63250896685227
C          -2.56947744195385   -0.02399497262614    0.16931418739932
Cl         -2.45144977030990    1.73121561339762    0.33157721859013
Cl         -2.32851909470075   -0.78122745730659    1.74837088860730
H          -1.79657852371355   -0.39101540489245   -0.51795282523264
Cl         -4.16096646634980   -0.46818623046726   -0.46807616438588
C           4.14950526535811   -0.60213243514987    2.00275549341680
H           4.41130960685718   -1.34020895309018    2.76522664718833
O           4.36144426209719   -1.11798306838541    0.70667336781007
H           4.79914141537320    0.26507200156821    2.11275934665982
H           3.10988904525860   -0.29439895446202    2.14191379757800
H           3.76783502341372   -1.88526755337036    0.57940502833473
O           3.72132674295702    0.38361108678676   -1.43550105401761
H           4.00642056903638   -0.09235556584593   -0.62296065551235
H           4.49968122808036    0.45668727766043   -1.99005661514130
O           0.01797323996672   -2.99877132109895    0.78702290951185
H          -0.30338854983025   -2.57849052451745   -0.03956392294628
H          -0.29248696042166   -2.43701325127021    1.50055750838920
O          -0.62114282717966   -1.73113610889548   -1.52026828794301
H          -1.02587251593529   -2.24466734220687   -2.22116293779799
H           0.32507563587032   -1.60871051708600   -1.78851470804742
O           1.97010694434340   -1.68542138424943   -2.08679076435793
H           2.27086389466453   -2.26444540180878   -1.36568865609349
H           2.49154183768666   -0.87150507379290   -1.99281979027891
O           2.58730905650839   -3.15907903737862    0.19901877816377
H           2.79781483355357   -4.09339248055664    0.17384204471583
H           1.64737678563377   -3.09577135857847    0.50634660487484
