34
-71.328835448415
C          -1.01127905265586    1.96987458100458   -0.27371855672624
Cl         -2.67346305228904    2.39974365633316    0.14849046451517
Cl         -0.27421333478128    3.27859483189255   -1.21427660028141
H          -1.02639175014065    1.05133452827226   -0.87341925326143
Cl         -0.07815350309533    1.68169913490659    1.20035983720693
C           2.63165998686931   -0.09508710817629   -0.09031012616460
Cl          3.67575510631676    1.14562510463322    0.62023492638044
Cl          1.81071008267008    0.54813173274130   -1.51789100765860
H           1.88364690609957   -0.41297181545258    0.64765234641970
Cl          3.59387001715263   -1.50877164012688   -0.54581677790178
C           1.02572990384590   -2.42659542250116    2.80119290726526
H           2.07724312938890   -2.70686226028519    2.74079681519647
O           0.70542935811062   -1.73880342999168    1.61135690827697
H           0.87466828097233   -1.78565126483412    3.67331341550309
H           0.41708005129797   -3.32815077797533    2.90879743677812
H          -0.25727707490410   -1.49821381761633    1.63765683482411
O          -2.15633306103843   -3.78027242620404    0.04102269746227
H          -1.28923601222787   -3.77706427711739   -0.38572065921838
H          -2.78399291573929   -3.44541015205470   -0.61897717345815
O          -4.38830413722475   -0.57658495665801    0.41956241345097
H          -4.31538267440173    0.36787527086019    0.25722290214576
H          -3.61189219331837   -0.81323379641770    0.96432027108875
O          -3.74452816114437   -2.16125473912240   -1.64030423200452
H          -4.08870480220849   -1.61944515005835   -0.88739942125536
H          -4.49637212170849   -2.35088529424537   -2.20270092790406
O          -1.32122076661534   -0.85488786257590   -1.38773195813203
H          -2.13011774782697   -1.26747684065957   -1.73202165609516
H          -0.63621358340232   -1.54618269526410   -1.41021632153913
O           0.43015203469892   -2.92051467675388   -0.83509063315466
H           0.63331057400403   -2.58333554327515    0.06342984664077
H           1.27616397994074   -3.07800695783863   -1.26079343266949
O          -1.89365952960511   -1.38063047963266    1.20069340415376
H          -1.69115493456738   -1.02079490924993    0.30839790152800
H          -2.08891083148718   -2.32969396349977    1.02100940691318
