31
-66.239393680157
C          -2.76977188409008    0.37398101442618   -0.14501908322867
Cl         -2.57161089114670   -0.16868878408090    1.52424036599006
Cl         -4.48808285850957    0.60632175369854   -0.51074991262074
H          -2.23647309603656    1.32330076012433   -0.27870469573936
Cl         -2.07826842223336   -0.82297129831225   -1.24742123613106
C           1.25092939290347   -1.49587168169364   -0.13276502588803
Cl          1.07721456095812   -2.44385896043090   -1.62005569934808
Cl          2.95444557629068   -1.41384560586107    0.32340657392256
H           0.89671025192389   -0.47562988788130   -0.31746906085687
Cl          0.31219375730151   -2.22561524097884    1.16967194685997
C           0.99411390003664    0.96436957622219    2.84218401484594
H           0.99484203226288    1.91733416093092    3.37978514674161
O           1.06315994834920    1.16095456651911    1.44890380503551
H           1.82936981859240    0.35278823571913    3.19440882517445
H           0.06078961986126    0.44115696183656    3.04464743604884
H           1.88723352482210    1.64332220706569    1.23679433049923
O           3.26548063507916    2.57211929472641    0.57220064801481
H           4.14496838355298    2.69011030419610    0.93340588568584
H           3.37509751784885    2.08857721185464   -0.28773358933579
O           3.40163920122525    1.22839707021784   -1.69562296599362
H           3.70278980629814    0.32889010541612   -1.54129550021180
H           2.45282301925045    1.15458713329887   -1.92040544043172
O          -0.57214594169016    2.47179157334035   -0.27674013232182
H          -0.16439110662278    2.03173898792482    0.49299593370691
H          -0.06407391313696    3.30153917158115   -0.37613563141191
O           1.40068083513876    4.32875227442856   -0.50585882404875
H           1.72847805107671    4.40216958510801   -1.40587760444686
H           2.07084409754432    3.82066145616587   -0.01685761217286
O           0.73177044609470    0.90579121022323   -1.98431432499563
H           0.21231928369573    1.53922867264447   -1.42956440731276
H           0.13534425510649    0.58866437010201   -2.66565153413688
