28
-61.151521113488
C          -1.73222024076607   -1.44461260113732    0.29047347745815
Cl         -0.52353976606531   -1.51436879019069    1.57821164034287
Cl         -1.87431714152467   -3.03090363861677   -0.49409038479858
H          -1.43540608840195   -0.69120771278477   -0.45172540755020
Cl         -3.28679075707769   -0.96153427724945    0.96678958124299
C           2.54738070119262    0.22723433764277   -0.43878179069304
Cl          1.38779234873162   -0.85221625155394   -1.23791946355368
Cl          2.51614598210368   -0.05032772093531    1.31462585079162
H           2.24417477734863    1.27533995890055   -0.64041090978226
Cl          4.18732547749615   -0.07648612918904   -1.06668381539905
C          -2.21646147462664    1.35090826501610   -2.57499519558469
H          -3.25273079183692    0.98463697721552   -2.58398529293598
O          -1.61072709446650    1.11142264147001   -1.32048367290727
H          -2.20599651982231    2.42300669318702   -2.82339939849490
H          -1.63216165115757    0.80284999232814   -3.32292718880378
H          -2.10654667948370    1.60076894968675   -0.61968238261807
O          -1.17771904925683    4.54208906106836   -0.16193784418124
H          -0.93417123254172    5.07783859134101    0.61314933953540
H          -1.88756092799163    3.94625658040097    0.12604198548702
O          -0.24180676747999    1.84308917613263    1.93075587804453
H           0.26156729606556    2.08749188701245    1.11874048901736
H          -0.07482408292930    0.89888508769051    2.07857276589432
O          -2.59026146530537    2.36578269122377    0.85778386914702
H          -3.29522101511593    1.88983758459965    1.30410113654899
H          -1.75573145291288    2.18140747270330    1.37872974742702
O           0.61196283490770    2.52691192125484   -0.52778701607098
H           0.17832475094091    3.40391759005843   -0.54077881525840
H          -0.02135630162047    1.94432862156030   -0.98446226551098
