28
-61.151751184299
C           2.31139070479370   -0.13078665388058    0.55994599850503
Cl          3.80773548809750    0.62203712100924    1.13555409593354
Cl          2.08103153800682   -1.70301807275020    1.33609399042078
H           1.46485285840390    0.52783370476289    0.79715977680174
Cl          2.38585266057593   -0.33462142875890   -1.19478735375802
C          -1.26264388264515   -1.43522412574921   -0.83076583462057
Cl         -0.21017951841335   -2.79885143264041   -1.24698076605462
Cl         -1.35155326320168   -1.25847116551573    0.92237148967433
H          -0.85347651575846   -0.50932915924710   -1.26009986873350
Cl         -2.88554058133835   -1.70056216971207   -1.48875355840650
C           0.76712687974001    3.32811461470853    0.93680897860442
H           1.70620392312852    3.37584593789983    0.38552231037113
O           0.19677857361286    2.05970529396559    0.69402766704390
H           0.97067934490777    3.46591570033712    2.00061555698894
H           0.10538406150875    4.12757993708093    0.59402966733127
H          -0.65069229399391    1.99432188161783    1.21682546905979
O          -4.03667442808801    2.23104128632056    0.22283673142374
H          -3.71977850762472    2.02485507618303   -0.68438851672838
H          -4.47933496566529    3.07876832677844    0.16557045592247
O          -3.10249249306107    1.65017414734428   -2.23353914403140
H          -2.13249357588557    1.61391480503929   -2.16324348233281
H          -3.38694813008229    0.76215652451594   -2.46293684494579
O          -2.07827452425828    1.87438138285044    2.01294107804576
H          -2.81511675965073    2.04327281461296    1.38324151078224
H          -2.20696223138083    0.97649833268802    2.32529495328082
O          -0.40708279030180    1.31257636838369   -1.81609124481883
H          -0.18133423194069    1.66378519557616   -0.92611389286955
H           0.37753644667063    1.41293104773359   -2.35839949360230
