19
-45.893814688473
C           2.03573132699275    0.69059853641531   -0.24882569663170
Cl          2.34443846994774   -0.47368983497922    1.04822849372003
Cl          3.57050787716668    1.19453511841576   -0.97732522290720
H           1.41457610803074    0.20445226148656   -1.01132762140216
Cl          1.17718041075751    2.09677714906655    0.40003261602560
C          -1.92466536711491   -0.09119698664254   -0.05339301133874
Cl         -2.48209182810833    1.57504356908556   -0.27547685569090
Cl         -3.29274820831288   -1.20388713663209   -0.16041968775033
H          -1.19482631432384   -0.33986550852576   -0.83551329186062
Cl         -1.15222930243143   -0.25087334322971    1.53298334523090
C           0.00183319788426   -3.66473218704133    0.33182811558240
H          -0.40200321802904   -2.90760213412236    1.00966543657839
O           1.02714571879357   -3.12461817758190   -0.48528501485527
H           0.37292167496512   -4.51344539704554    0.91135425253782
H          -0.78908678395884   -4.00582869141481   -0.33577706379620
H           1.71140416474386   -2.74852234848715    0.08446599442708
O           0.21646666656461   -1.02737642851638   -2.00814499856741
H           0.47101512518730   -1.85837877770528   -1.55157670923624
H           0.16749034133680   -1.22665231483811   -2.94709604519853
