28
-61.151724349358
C          -1.33502679732738   -1.37244769800894   -0.20424398676874
Cl         -3.00182132953126   -1.05131799695159    0.28321311747166
Cl         -1.17348625855217   -3.05879867060097   -0.72059012636510
H          -1.08675200533895   -0.70678790398494   -1.03966011659518
Cl         -0.23857404546404   -1.04051600176013    1.14325354498056
C           2.72459903091378    0.14345799817531   -0.64452289540077
Cl          4.16081374579043    0.74832107872414   -1.48338063428166
Cl          3.19860400801819   -0.75269522468077    0.80514648683064
H           2.09202728032362    0.99123919038640   -0.35644121574486
Cl          1.80315092447922   -0.91034548325729   -1.72432650458283
C          -2.04542474651769    1.66302811570033    2.86110778341976
H          -2.27651596195076    0.61373982256628    2.66159126706108
O          -1.50572785437310    2.29596491125332    1.72574359504130
H          -2.95275221715237    2.17050433126235    3.20273675227943
H          -1.29181038329489    1.71848220770696    3.64526079966143
H          -2.14661036852379    2.23176598357275    0.98749500540606
O          -2.98115774418031    2.24189360268687   -0.61672217533039
H          -3.76924063002483    1.69577524065795   -0.62072539326121
H          -2.32572697112591    1.77824434118963   -1.18043095168766
O          -0.93651062879782    1.07172959112448   -1.94097872805406
H          -0.29109087157563    1.45735908593761   -1.29402768086274
H          -0.62203443210338    1.31345557826751   -2.81342860693817
O          -1.07214314992611    4.39788660438789   -0.35106476117604
H          -1.16896205775513    4.56667180200874    0.58990249222835
H          -1.85708009902661    3.89632053002487   -0.60735396448723
O           0.54993527461455    2.24037183572889   -0.08870612243540
H           0.23377282825347    3.14351447078358   -0.29511246117448
H           0.07357564583712    2.02044593935849    0.72976612746182
