31
-64.307439590275
C          -1.78421295438514   -1.41638830497928    0.22085656839963
Cl         -1.08933424600243   -0.66305969431083    1.66113707020734
Cl         -2.38770627231065   -3.03289767084246    0.62316471003353
H          -2.61272260419822   -0.79775795077508   -0.14541665318834
Cl         -0.56197439940623   -1.53321393721489   -1.04388114014954
C           2.30320606292459   -0.22119382990441    0.38915121642730
Cl          2.73479730488677   -0.46096641605865   -1.30862324915942
Cl          3.58421920286534    0.68967414077286    1.20790204346969
H           1.37194928246738    0.35728023182720    0.43472884558999
Cl          2.08328372732766   -1.78779774110663    1.17521525626506
C          -3.06599056255343    2.49928505472801    1.64174159401307
H          -4.11678708832947    2.79283267943373    1.57133970320193
O          -2.45875830770599    2.48015736275765    0.37064208117927
H          -2.53364218874370    3.23651419668196    2.24136768104379
H          -2.99948019692320    1.52352935138486    2.13106584953066
H          -2.92083125067019    1.81912565922277   -0.18970422517940
C           0.85019396519329    3.18928700323060    0.33894212211097
H           1.89348919334042    3.06139861329143    0.05236910032943
O           0.17461406119464    1.98640926621304    0.03016111630386
H           0.79829076856672    3.39947915586517    1.41013358461557
H           0.42454973007247    4.02939230370923   -0.21347621674837
H          -0.78254827734033    2.13020954613461    0.21323406403739
O          -2.16413275371649    0.40103436415848   -3.31646974079834
H          -1.31995216671188    0.87290076427384   -3.13947613051821
H          -1.91415864411888   -0.50113452859119   -3.52696475078480
O          -3.66350623016015    0.56857867095873   -1.15229940206932
H          -4.56292375734116    0.73156902805384   -1.43795367781285
H          -3.11985957291052    0.53721090551735   -1.98355231875195
O           0.22958486788778    1.42609467045533   -2.64736362371984
H           0.95866126597285    0.80619410055370   -2.72619521861930
H           0.20112336711315    1.68477454953177   -1.70539513432653
