28
-59.222761610833
C          -2.58367551299943   -1.50732967175420   -0.56998981439796
Cl         -3.80981284626661   -2.52430813283779   -1.34189248489430
Cl         -1.12157997808767   -1.45932384810549   -1.56249944983003
H          -2.97387060407869   -0.48876929215724   -0.45651995525749
Cl         -2.19696231957407   -2.14851447627287    1.03594701196081
C           2.04122940191043    0.05199414124612    0.25641607694396
Cl          2.10768619879948   -0.31856806239724   -1.47409648581041
Cl          3.67887856800226    0.12159944844456    0.92488428603173
H           1.54874435538710    1.02348271668807    0.40117008035938
Cl          1.09950699951685   -1.18296354526982    1.10008817080789
C          -0.70700732617263    2.34597310425109   -2.27954890958083
H          -1.46130966389807    2.35638246698725   -3.06497406247790
O          -1.30633696795226    2.88422012406983   -1.11978209031959
H          -0.37332931311232    1.31848710321264   -2.11413458845711
H           0.14462946469212    2.95221658127227   -2.59686607656319
H          -0.64033591710914    2.87452902263207   -0.39888817344940
C           0.88050637242108    3.50746662692536    1.82218192175145
H           1.38169411965159    3.09383773378739    2.70053803051852
O           0.37046459172713    2.47891788199078    1.00193327270828
H           0.08393585669015    4.18068269366444    2.14819117202551
H           1.60320183007367    4.06700974474376    1.22919311521063
H          -0.29714579330471    1.96033016445659    1.52387490383556
O          -3.21651396383684    1.41843327580946    0.05349514517939
H          -2.56917366609588    1.95818297432917   -0.45975122678192
H          -3.99161010677186    1.97032800277369    0.17090875259423
O          -1.52372788619029    1.02005047096245    2.16713302207630
H          -2.22970964041785    1.11605560502632    1.49840805279584
H          -1.30607251672491    0.08456905679854    2.19706080217400
