34
-69.393919907105
C          -3.17093538142524   -0.56952525522283    0.17564517582872
Cl         -2.46568706838558   -1.97485525918303    0.97208347066791
Cl         -3.75521198432320   -1.02292760424236   -1.43015467747373
H          -2.40403643999489    0.20811513887109    0.06870681791431
Cl         -4.50850989144598    0.05977743340734    1.15072973893274
C           3.32414273387700   -0.27762442458534    0.07694537286369
Cl          4.82450674044147    0.27873020107779    0.83122605078198
Cl          3.23774339614278    0.31969193282399   -1.57449541690886
H           2.47087827039961    0.10719421609987    0.64311489955918
Cl          3.26135484519408   -2.04642916544771    0.07210354482910
C          -2.78437272093956    3.11736236457187   -0.32494257541154
H          -3.25747381676714    2.90613265461032   -1.28768361559278
O          -1.75880264984423    2.19006482585335   -0.04728723259292
H          -3.52651133217808    3.01699402098064    0.46533140704393
H          -2.40223038305118    4.14163830105353   -0.32916555255863
H          -1.07224859577545    2.26225669332275   -0.73249895804826
C          -0.09644368586784   -1.38345013795424   -1.97949166613209
H          -0.63404900643852   -1.15948738359275   -2.90451093069722
O          -0.33409013584615   -0.39246564273513   -1.00472449412426
H           0.97036217607682   -1.48081995297505   -2.19645974730024
H          -0.46658974400395   -2.32423893461363   -1.57502793731137
H           0.00133577670184    0.46989194020134   -1.33186213243578
O           2.01615135572918    2.55669724883536    0.46237378810663
H           2.40443586682399    3.40834412690731    0.66547616054770
H           1.32011601781139    2.39544081850940    1.15668489151827
O           0.55008197765835   -0.61241576868480    1.54927591893811
H           0.10756145201613   -1.32988577739308    2.00625506953682
H           0.21034372781081   -0.62336538342535    0.63098626288941
O           0.03477871780721    2.00421608028172    2.09213733783642
H           0.19540104048847    1.04154702291875    2.09338913216956
H          -0.73001952398539    2.13627675858893    1.51006579004052
O           0.52215406060536    2.12501484713090   -1.68470333946593
H           1.07422600525412    2.13359806827242   -2.46862579059000
H           1.13023948904794    2.30180183261780   -0.92370979511984
