31
-64.307400330927
C           1.57491272861616    1.57218147294999   -0.13565692660718
Cl          0.72780553122290    1.26992865760303    1.38243498985743
Cl          0.41491382999927    1.59335577060888   -1.47338456374749
H           2.29393252127972    0.76106692241395   -0.31535746382747
Cl          2.43060568550910    3.12095647234641   -0.05093774574304
C          -2.49316631702664   -0.07740125615595    0.00949876348691
Cl         -2.55619669561535    1.66062227530856    0.31615848272394
Cl         -3.95340521665172   -0.85774670898729    0.63843286538269
H          -1.61438631894031   -0.51330177669475    0.50319383328411
Cl         -2.36292453151054   -0.37891056953467   -1.72916525226484
C          -1.01900613221720   -3.17345172150557    1.30814117973873
H          -1.46357291831456   -3.06459098850495    2.30002115372220
O          -0.31830826216018   -2.00412058121938    0.93933735503372
H          -1.81169284196037   -3.32425903925717    0.57600039397967
H          -0.35800952950353   -4.04334708613349    1.30719543408044
H           0.41912162821677   -1.87176007304450    1.59018196576547
C           3.78811186126358   -0.72137307915077   -2.36913434211826
H           4.00433060520870   -1.69596098330950   -2.81436121182667
O           3.05611303609420   -0.86025238972462   -1.17176944821107
H           3.24112504669562   -0.11206918036071   -3.09306480689118
H           4.72514277775313   -0.22414106107271   -2.12048961381827
H           2.19952988920771   -1.32160665832107   -1.37358300988815
O           3.94714127531647   -1.90030944102897    1.18905658450112
H           3.71654191200443   -1.49585059861789    0.33052255793619
H           4.22963208943904   -2.79736891558333    1.00279667786368
O           1.69251847605386   -1.68293775119729    2.65637340600663
H           1.70440223411974   -0.79582386393886    3.02083654721916
H           2.54360580819581   -1.79081599030169    2.17991369165544
O           0.68306991347337   -1.97201902608680   -1.58539949057961
H           0.06186766352607   -1.41465949944723   -2.06136901055461
H           0.31602483127067   -2.06694762966068   -0.68216450853727
