37
-74.482408665283
C           0.29535099514806   -2.11348308980798   -0.06968529897645
Cl          1.62467676023101   -3.02425670832429    0.66503554996732
Cl         -1.26013354419824   -2.80657794516211    0.43607474780925
H           0.34537496465867   -1.07337650731349    0.26922187622644
Cl          0.43269094007879   -2.16892490852540   -1.82798182255601
C          -2.15872319213498    0.97614269356062   -0.03960797387957
Cl         -2.38935220445997   -0.10011448707367   -1.42198012436679
Cl         -3.32646648834166    0.57364154128015    1.22804551904407
H          -1.14487753677844    0.84610417730242    0.34950455531981
Cl         -2.37240544003825    2.65803522730843   -0.53902881767774
C          -0.10818153729734   -0.07954974137603    3.08893944645430
H           0.33757595301610    0.46416420397421    3.92690190155420
O           0.39875245825294    0.38376492475973    1.85818521926115
H           0.08566618424215   -1.14795865949043    3.21586266671635
H          -1.18621177262818    0.08625217826699    3.08674800541092
H           1.38462078905392    0.22223502719967    1.85886060966123
C           0.53864974965930    1.40698543228647   -2.63657062972539
H           0.23948488252065    0.50027337549908   -3.16985756549329
O           0.79645490300898    1.13821164407756   -1.28013532813857
H           1.41464780235007    1.83912611566467   -3.13044555249479
H          -0.27948867280891    2.12625437985220   -2.67342456469850
H           1.55597876741854    0.52178520446355   -1.21811774364140
O           3.64586178244145    2.72731946340161    1.25674410585392
H           3.93438592215731    3.44169368800557    1.82774966579197
H           2.66066368846500    2.85574799144548    1.11769264011847
O           1.06410171050954    2.86690761905318    0.81746784011592
H           0.68958543753111    2.21160484410378    1.42640141570867
H           0.94545761348530    2.45899461490659   -0.05929969908970
O           4.51968784617344    1.93652316283211   -1.18312741104686
H           4.33052546098188    2.24648528948643   -0.27370724263841
H           4.16724926531283    2.60619096026779   -1.77226758020322
O           3.02202442371829    0.03501508447778    1.71051866522641
H           3.40105056184851    0.93079435113899    1.69591528618964
H           3.09862626324927   -0.29302867045333    0.80177510007650
O           3.10940996329759   -0.32260307682256   -1.03861627685788
H           3.69254533149982    0.45421992429521   -1.20486086965354
H           3.40295569274036   -1.04216579036795   -1.59943925766414
