31
-62.377779854873
C           2.19986056212205   -1.33206990072822    0.15324319804994
Cl          3.57457110763807   -2.09226625381238   -0.66426230087288
Cl          1.00831756786254   -0.80550428416715   -1.04320521488259
H           2.55710673548943   -0.45900620294878    0.71234004482450
Cl          1.45176761071752   -2.47746744817523    1.27872798855653
C          -2.36225481502883   -0.11381905198762   -0.29175156700793
Cl         -3.57389349050997    0.69112684465047    0.71545727515915
Cl         -1.95887787557704   -1.68891074393223    0.40253272525451
H          -1.46302417614601    0.51329438814598   -0.32675287518190
Cl         -2.98259962033265   -0.31830049986492   -1.93564054416396
C           3.08084326562866    2.13405117782957   -1.86750917168104
H           4.13632972862461    2.39878664458781   -1.76204422839427
O           2.33383491160096    2.57356321488024   -0.75605765563236
H           2.99532292733344    1.05288625737960   -2.00514474373879
H           2.67619328334261    2.63824078485077   -2.74402706640152
H           2.67342610138039    2.13288860325804    0.05060988013015
C          -1.01977848707380    3.34552455572684   -0.56862382441751
H          -0.53121491315687    4.23516997012326   -0.16494889672945
O          -0.29824742492890    2.17712633152689   -0.23759657835945
H          -1.11648053793777    3.44976408027460   -1.65218135762712
H          -2.01257561362622    3.24941325214168   -0.13057568441157
H           0.62358036353658    2.28168632514729   -0.56816230733679
C          -0.33717075543022    0.66928753310008    2.90824704751665
H          -1.39551782756156    0.92247394748065    3.00050335522424
O           0.39804043006308    1.75038644304741    2.37451705462302
H          -0.23557466042126   -0.22536705078758    2.28848813403588
H           0.06616376433867    0.46522182325086    3.89912144863669
H           0.03453707863813    1.96498159665596    1.48780988954743
O           2.91718142593129    1.28994714568728    1.60400834291135
H           3.54292314888647    1.65720463534814    2.23070528487478
H           2.01957540611243    1.44740215600119    1.98320815032812
