31
-62.377507807935
C           2.06989088827670    0.20831945507140   -1.23225344303243
Cl          1.84725359147520    0.54102011086385    0.48903354966374
Cl          3.78628709534694   -0.05230558515984   -1.57826316792542
H           1.51123107986472   -0.69857226615737   -1.49513292780176
Cl          1.46053354985862    1.56776829301789   -2.18988871473470
C          -1.82729895878447    1.26260610768160    1.47139839002983
Cl         -3.30750068075995    2.02202723006201    2.07569915933815
Cl         -0.65315577996472    1.09673754734735    2.78643930957290
H          -2.07343231130766    0.26594406592186    1.08018848919203
Cl         -1.13841558403223    2.23966510341142    0.16860422863310
C           0.23719587036251   -2.63997699390701    1.86294811238337
H          -0.31996394144589   -2.88878497037698    2.76927645016573
O          -0.47184088899555   -3.03980649356030    0.70865443249341
H           0.44306925207586   -1.56702498060074    1.85177560502488
H           1.17941399929925   -3.18601679333805    1.86552617546502
H          -1.31764156307557   -2.54451361044832    0.67869571054778
C          -3.98689378502817   -1.84541571956313    0.52017393007688
H          -4.18856965266477   -2.80890059392588    0.04603490008582
O          -2.65617747699111   -1.43574438597945    0.28857657678344
H          -4.69567487873189   -1.10416313229804    0.14304516264260
H          -4.11302517342554   -1.94113849596758    1.59803053283729
H          -2.51380781114010   -1.36313817086253   -0.68836953500424
C          -1.92442403929846   -0.03894260031816   -2.88402097572486
H          -1.46302709016586   -0.07577611557221   -3.87354007847498
O          -2.00093084203103   -1.32794564224404   -2.31237431907168
H          -1.35577056057865    0.64526716141556   -2.24933810717001
H          -2.94486930544186    0.32855342007422   -2.98310371726975
H          -1.09143600276975   -1.68559588339115   -2.22457259311935
O           0.46002470650115   -2.37069097675574   -1.71174548142153
H           0.73431477469832   -3.17012036762798   -2.16479832930235
H           0.20506216590115   -2.64560219599372   -0.79910682340068
