31
-62.378033286835
C          -1.55664304466329   -1.62059215260343   -0.02620116968565
Cl         -0.72869808506179   -1.02141329552290   -1.46904940975019
Cl         -2.40501580908548   -3.12962991878611   -0.39846802676426
H          -2.27874567221844   -0.86465582231887    0.30974712505747
Cl         -0.37953235596988   -1.89226552145465    1.26695600252807
C           2.46053803955010    0.05605409603102   -0.06711785042524
Cl          3.85045488381052    0.98704617416508   -0.64767295050848
Cl          2.55454361642288   -1.60476440675161   -0.66037045897454
H           1.53974400761634    0.52935203968604   -0.42812301661570
Cl          2.43817744609008    0.06329296279927    1.70138568174371
C          -4.13443520278000    1.01864090517466    1.93817123063443
H          -4.05910673754131    0.40656675815228    2.84034824654701
O          -3.03083781457084    0.80154752551215    1.08679258812334
H          -4.20856049641553    2.07060051918272    2.22496750023398
H          -5.03013057345657    0.73249281406665    1.38752350843124
H          -2.20316233793929    1.06286489858615    1.56761460604195
C          -3.00823198322322    1.82207479740879   -2.31098042290736
H          -2.78127603986292    0.76189321490900   -2.45353571820806
O          -2.42707168443500    2.31788404434043   -1.12698723077606
H          -4.09300060821792    1.95876848991987   -2.30484015641328
H          -2.58597783175964    2.39135255550293   -3.13805593167915
H          -2.78844055233056    1.81909781481066   -0.36463647970649
C           0.81323942852552    3.35286355402178   -0.59389694653812
H           0.97800454706115    3.56146820019558   -1.65400002892054
O           0.18385605387268    2.10046963265026   -0.41825501908434
H           0.21508469764601    4.15689668425054   -0.15942390949297
H           1.77628555022604    3.30673719904395   -0.08697916445725
H          -0.71868591978588    2.15595186969201   -0.80863982137855
O          -0.65889079165284    1.45503480844736    2.10655822518461
H          -0.10792039127481    0.73050335633142    2.41349028383930
H          -0.25514994538953    1.76640591390774    1.27232159757008
