40
-77.638256814506
C          -3.15488984312704    0.62250709754859    0.15966650118803
Cl         -4.64790466538927    1.51968392545639    0.47150083303854
Cl         -3.37808679183944   -0.46115025654562   -1.22053139049655
H          -2.34018980385637    1.32853930214680   -0.06699629787180
Cl         -2.70978375063367   -0.31816613856196    1.58938509880510
C           0.94257846874543   -1.82232222009790    0.26275104702325
Cl          1.35109475685741   -2.41511290930818    1.88117580092443
Cl         -0.63214718181563   -2.44775304952785   -0.23110770790129
H           0.90579340104273   -0.72952189428064    0.28516180474173
Cl          2.18203838451369   -2.32994362681573   -0.88329765962801
C           4.38766792588212    0.13493351264851    0.71979024073719
H           5.05174662254115    0.22405407200053    1.58357204985870
O           4.38619148527106    1.32843449770417   -0.03617435438040
H           4.75450721059298   -0.65825862493944    0.07077174156744
H           3.38240301553419   -0.11854955478147    1.06267770062203
H           3.96547095408608    2.03077633356415    0.50067921664977
C           0.09667372706926   -0.35781895505181   -3.18911264854882
H           0.75176618934190   -1.14922188468075   -3.56245178072227
O           0.61005596962734    0.20585147318864   -2.00389415689859
H          -0.03309762859845    0.40043533744532   -3.96681372304464
H          -0.87362187897822   -0.78606238591494   -2.94319355793545
H           1.47818286067464    0.61540310535301   -2.19195358097769
C           0.60997417014384    0.95097316956142    2.94814915856056
H          -0.15450272466365    0.17628899054713    2.93634815680748
O           1.07858015280469    1.09309299051969    1.62454811604964
H           0.16896227600143    1.88215090779037    3.31384373076808
H           1.41746147931147    0.64644054311856    3.61886222952874
H           1.74358494125856    1.81190775881892    1.60206810728709
O          -0.54436966506313    2.02382668296923   -0.38213184607020
H          -0.28688875929240    1.37180645736983   -1.06263550016815
H          -0.10032408980633    1.70936481884051    0.42705090330661
O           1.55680563701734    3.63794454123602   -0.99953144104482
H           2.00842262287452    3.03754095988646   -1.61342227889317
H           0.68094438268919    3.23092175096601   -0.83215342209995
O           2.97189960141770    1.58119390608909   -2.29695015395550
H           3.59343742330130    1.61490915541105   -3.02548945268525
H           3.50455453927807    1.40048710517221   -1.48703153467073
O           2.81692402791250    3.18220848107628    1.23112595564962
H           2.34636357078353    3.44129888799225    0.38349492069500
H           3.01842154378944    3.99948293503096    1.68807228432558
