31
-62.376940080705
C           1.79801975020305   -1.43448493410348    0.42705077643049
Cl          2.79203756202360   -2.90005617292066    0.46619006370649
Cl          1.04538275178098   -1.26180082828403   -1.16261706417972
H           2.43454507327972   -0.56315224313108    0.62053730041016
Cl          0.54433758634891   -1.52172093364484    1.67231691661995
C          -2.29200529944818   -0.14652746153573   -0.12487669410726
Cl         -2.60098009840154    0.15795178534836    1.59005547975541
Cl         -2.22985547216329   -1.88505811358651   -0.42677250927992
H          -1.33361131808431    0.31278096567817   -0.39594909366180
Cl         -3.57153613059002    0.58771936606121   -1.10285401984577
C           3.16969587805558    1.27478714903032   -2.67299489944639
H           4.22736752972265    1.54754175974749   -2.72744708808894
O           2.52495853078279    1.94995852869305   -1.61782371275650
H           3.08412588207089    0.19014314336889   -2.56570392335733
H           2.67861582449648    1.58113866406311   -3.59561741630557
H           2.93320944503795    1.68208895510940   -0.76894101671135
C           0.30142927881725    2.10627805526734    2.83068943535131
H          -0.63378752551070    2.66840688778936    2.88480507940118
O           1.06919643612105    2.50601123199736    1.71597121942146
H           0.07366485010717    1.03819208909477    2.79503043659950
H           0.89341844498111    2.31820529480722    3.72021649763799
H           0.55211313547240    2.33469775870597    0.89918914153014
C          -0.74532747540124    2.96831321169982   -1.31528754398547
H          -0.16633733891131    3.89317973438036   -1.26489240613218
O          -0.04104235716296    1.89659653522941   -0.72161656110790
H          -0.98144270961256    2.74928040537150   -2.35957293388240
H          -1.67482120336259    3.09356944920348   -0.76119162062745
H           0.83152670548539    1.82393325094510   -1.16948544578729
O           3.28845997095234    1.23098056393239    0.92907964014523
H           4.06808846600756    1.59756134102857    1.34996646159864
H           2.51511227295140    1.70163917876857    1.31978055414446
