43
-80.793615209625
C          -0.06800939981265    2.30808777816461   -0.30122171062002
Cl          1.42145394365279    3.20290882662294   -0.64569375113852
Cl         -0.31205921680675    2.20051229841072    1.44512493282692
H           0.01088498619930    1.30096050784193   -0.73163700145993
Cl         -1.45359576318453    3.12491836621523   -1.04605568443030
C           2.20289036284709   -0.50543173445462    1.06526762517177
Cl          2.68716151521238    0.79836887593657    2.16096944789395
Cl          2.82756782392151   -0.19040362585648   -0.55430658478507
H           1.10683371639064   -0.56138316943300    1.02376186086365
Cl          2.82983415106501   -2.05214906511684    1.66405305161631
C           1.26388944768968   -3.45742459030965   -1.56878426891038
H           1.15644821295033   -4.53556963505930   -1.71359501947430
O           0.21032217939646   -2.75624190071699   -2.19135281640512
H           2.18990995469578   -3.12743444093150   -2.03708385259912
H           1.30744139472863   -3.24301378885269   -0.49796041560119
H          -0.62107693438325   -2.98990433073370   -1.74240232614842
C           0.60419870698461    0.46937755073808   -3.39071737111745
H           1.69440738751505    0.42635633010679   -3.32403879434299
O           0.00784363073382   -0.05222979340601   -2.22324744405036
H           0.27652664307279   -0.07786587558667   -4.27745407943765
H           0.29367184473493    1.50998826781624   -3.47760715058568
H           0.21406349657952   -1.01439937194605   -2.17790245820490
C          -5.46439952419540   -2.08507775285481    0.22864135934702
H          -5.36885165003513   -1.68764818403974   -0.78600006834219
O          -4.22773580404146   -2.06122166780910    0.90518456427251
H          -5.78081775182923   -3.12589295662457    0.17783126074274
H          -6.22162528888731   -1.51030137821444    0.76893858158533
H          -3.91957549295775   -1.13784212675699    0.93664089545249
C          -0.98177866256843   -1.40003317148242    2.60364784892217
H          -0.85348170535208   -0.54309869335627    3.26928815260894
O          -0.83871072642920   -1.01023428177444    1.25146739300306
H          -1.96142803270522   -1.85032731380190    2.77857285127784
H          -0.20511399512448   -2.13440057529001    2.81340268744815
H          -1.56450479661381   -0.37623121913308    1.04436591582881
O          -1.98243193161125   -2.79724332075023   -0.50550502736374
H          -2.84634581046718   -2.86648168084620   -0.06341555742786
H          -1.43909683585762   -2.28402039774033    0.12213188009714
O          -2.67826686952641   -0.53120032576504   -1.90568675572369
H          -2.51693854566509   -1.44531523185149   -1.60184101851940
H          -1.80422338261788   -0.20819585988490   -2.18383327861722
O          -3.00457351475960    0.43600254716256    0.49989946225037
H          -2.95371261343744    0.16942694832119   -0.46072909184838
H          -3.05014265396031    1.39331630713407    0.51614906667385
