34
-65.532533934498
C           2.53603904304145   -0.04241486788908   -0.13635815359142
Cl          2.63546247649323   -1.80284709181067   -0.04295910999133
Cl          2.75734865270302    0.66102451553633    1.47143579844162
H           1.55148304432221    0.25520656591141   -0.51690072210170
Cl          3.78056081447294    0.57189678711778   -1.23470907791260
C          -1.44507688798740   -1.52330819047095    0.63628264715057
Cl         -0.65386640157779   -1.66716852903323   -0.93786371600938
Cl         -2.36466624617022   -2.99598718241444    0.98531690897522
H          -2.12975347201322   -0.66512477922449    0.61594472281636
Cl         -0.22715765820942   -1.25891327892976    1.89246545355175
C           0.78383937299760    2.58664406036594   -2.00190572809654
H           0.13727754549931    3.45122969446959   -2.16768391950531
O           0.14095272292025    1.62041713554786   -1.19492809330354
H           1.68322428487048    2.90402201856360   -1.47561056188394
H           1.06897562598492    2.16153147947535   -2.96740784233301
H          -0.70909686808940    1.38396605281736   -1.62884030691426
C          -4.36108746319152    1.41990328445202    1.08103758907808
H          -4.31924073956634    1.38196681346299    2.17256101720748
O          -3.12508794776688    1.04528930889716    0.51339615506035
H          -4.64817488695546    2.42709075356361    0.76844814139030
H          -5.10735382135186    0.70803742062476    0.72957584420191
H          -2.43306557763102    1.68933125778237    0.80429626855695
C          -2.93559681047165    0.30949836890482   -3.00356234542629
H          -4.00658310852899    0.47338969752211   -3.15231680510780
O          -2.38962527353568    1.27681197082587   -2.13626654806333
H          -2.42655026906407    0.41455103053886   -3.96065504450718
H          -2.77693728144578   -0.70334996418959   -2.62368054805032
H          -2.81441379088157    1.19363184639548   -1.25876719806547
C          -0.31611507824325    2.56804522588228    2.22405975377453
H          -0.94467525242298    2.93123948411574    3.03632372414824
O          -1.06535790932828    2.68734953964795    1.03419361753603
H          -0.03972685401953    1.52871593960448    2.41859047017689
H           0.59129070264777    3.17490726417489    2.17980158624693
H          -0.51644995551311    2.37550701506035    0.28289652050595
