34
-65.533360732178
C          -1.82741979572780    1.63248999146325    0.23660712778134
Cl         -3.10436935320769    2.48174103891027    1.12172348375156
Cl         -1.04504558725274    2.73359707547731   -0.90940065173123
H          -2.27273464337658    0.79395740827011   -0.31593040198383
Cl         -0.62818426517386    1.00072799751435    1.37397116695950
C           2.54974971532501   -0.04200621688793    0.32022414512175
Cl          2.27285847824798    1.56982686477443   -0.35124103801764
Cl          3.63535861086002   -0.95248336704714   -0.73947772869171
H           1.59614703992762   -0.57933120579893    0.39035085159660
Cl          3.25332198915605    0.08922543505396    1.93780685871653
C           0.28811603271795   -0.56999022342287   -2.77649297004439
H           1.31640529566436   -0.90893005271707   -2.92013964814059
O          -0.51217292863838   -1.59421470221368   -2.22532346483508
H          -0.13899626431241   -0.31553052599696   -3.74559021817871
H           0.29027067743471    0.31951142372682   -2.14065063458184
H          -0.12675600397302   -1.85877795590325   -1.36227088714651
C           0.90096085586978   -3.35189129431047    0.62656887221141
H           1.05610720927333   -3.47561270250870    1.70123146486577
O           0.26894993817911   -2.11935361943609    0.34769356544150
H           0.30884733851324   -4.18931892294473    0.25092372091546
H           1.86866433561842   -3.34155309855361    0.12640526100768
H          -0.63558090614794   -2.14500925710244    0.73563978860361
C          -2.96907237779664   -1.77268866615345    2.20134857068035
H          -2.77242904462652   -0.70394591283226    2.32080808158203
O          -2.34970048906624   -2.28517859164452    1.04317812429270
H          -4.04961448283424   -1.93702110620820    2.17540407748238
H          -2.55075851014345   -2.30950398844442    3.05163733214937
H          -2.70141265983062   -1.81364854785057    0.26079440394124
C          -3.99007711814348   -0.99657121520567   -2.09940307204055
H          -4.87986152037840   -0.69212147128294   -1.54922256337224
O          -2.88707978541496   -0.83215137665758   -1.23526830879192
H          -3.88862944393054   -0.36917843959010   -2.98848257562658
H          -4.09570920955433   -2.03988546250197   -2.40712383739388
H          -2.06531451890317   -1.11362078476116   -1.70978843115131
