43
-80.790607652236
C          -2.50608854735935   -0.13862794087586    0.19540565036951
Cl         -2.94761740272438    0.44124037910442   -1.40788839871755
Cl         -3.70703698074156   -1.29954288333316    0.77545748119817
H          -1.53134139389010   -0.63165611872928    0.14718100983253
Cl         -2.39972190119770    1.22810571892979    1.31373723778078
C           0.76543958813996    2.02518417084771   -0.10210212596108
Cl          0.87444399660693    2.43497293563566    1.61207129296889
Cl          2.33586667744030    2.25836549626221   -0.87233787385519
H           0.48289789955549    0.97307360147186   -0.21416129934858
Cl         -0.44234480241464    3.04327362054180   -0.90171953254532
C           3.85695456680712    0.09958567005265    1.83668542124336
H           4.90682891998099   -0.12655866208106    1.63010838163962
O           3.01006276067642   -0.88130867314144    1.28255117867783
H           3.69834468397817    0.08772598340489    2.91411031365284
H           3.62218773728640    1.09482827284973    1.45145265287736
H           3.10739617720383   -0.87859618907412    0.30588850858998
C          -0.10806109442695   -0.97891485285241    2.80967448804159
H           0.06165522491306    0.00399176567296    3.25636263168215
O           0.29768511241450   -0.99445251218455    1.45663168777935
H           0.42672160174529   -1.73433712699631    3.39086566504936
H          -1.17358034318649   -1.20141271490519    2.83343457050764
H           1.27456438120892   -0.89279678304906    1.43575431813262
C           0.24389510158966    0.26225429275131   -3.24839682222443
H          -0.78900533305252    0.59708406910838   -3.35714503992648
O           0.44476293949522   -0.34861713642515   -1.99145227158406
H           0.48538465342461   -0.42581625390685   -4.06407541457373
H           0.90498423967336    1.12667146163389   -3.30252262590593
H          -0.19354335096319   -1.10527855507807   -1.91446767057314
C           3.51995281158615   -4.05036663304663    0.18084273389529
H           3.53004544486721   -3.34865203426771    1.01911597466226
O           2.56956820805922   -3.67042329721726   -0.79077353720626
H           4.52278481999333   -4.11064769243128   -0.25122169292887
H           3.23001032098559   -5.03658704954908    0.53987584499929
H           2.79527300080378   -2.78067447173717   -1.10971026677675
O           2.99534531742556   -0.95812719356672   -1.44706129948218
H           3.52542746705413   -0.30548838132656   -1.90880712059683
H           2.05493052292878   -0.74432623512470   -1.65271155162686
O           0.01708408544765   -3.48663358157622    0.26101982024997
H           0.90541536356324   -3.67040343244716   -0.09553741472223
H           0.10616229860606   -2.67903058273553    0.79602819599188
O          -1.24578028049557   -2.37707392119926   -1.74383066755824
H          -0.85236832488361   -2.87585407797014   -0.97773309225718
H          -1.37707954791998   -3.02133198173726   -2.44056357901357
