34
-65.533354263583
C          -1.27080480924179   -1.80453802726440   -0.15079461487697
Cl         -3.02978951663189   -1.92422093531251   -0.29304466531542
Cl         -0.58724050092025   -3.39205215407622    0.22489408936092
H          -1.02927558954647   -1.09842499258495    0.65463368578301
Cl         -0.59156059004866   -1.19314879723848   -1.66657099721285
C           2.52802352793764   -0.04610654444967   -0.77864420080488
Cl          2.18478704025794   -1.30263843622848    0.41679325465584
Cl          3.93900765870830    0.89245756032403   -0.26861543126386
H           1.66182697983689    0.62311561125901   -0.84534138774220
Cl          2.82510850963002   -0.78341529698712   -2.35832303823164
C          -4.22159218904717    1.22367349602483    1.67548503608747
H          -4.22801812291208    0.31069355725969    1.07305308638302
O          -3.04814400116367    1.97509030269380    1.46113325548381
H          -4.33140463640089    0.95569596356690    2.72978846615799
H          -5.06135715185571    1.85268817182137    1.38284828773428
H          -2.27524986017424    1.42671130180569    1.70467482732509
C          -2.92676234528219    1.79769242362905   -1.98615854355976
H          -2.93539012696104    0.74891488558194   -1.67775963225667
O          -2.21342910536675    2.59890698142005   -1.07076773657272
H          -3.95697921167263    2.14757431814758   -2.09276929522837
H          -2.42309770980317    1.88152395476257   -2.94812552836376
H          -2.62645096644490    2.50198980226409   -0.18483445634962
C           0.87918868983842    3.25515704109418    0.03298674709565
H           1.09664094446871    3.85246021912171   -0.85503527384555
O           0.29369552771746    2.01871577236034   -0.32368527947963
H           0.21970518293279    3.82495489246341    0.69186714115024
H           1.81221395234407    3.03657157776989    0.55170141510696
H          -0.57880477911961    2.21009063268462   -0.74855379202728
C           0.10083527561404    0.59823178690883    2.89623598483692
H           1.08944884315548    0.17089895718261    2.71461019921577
O          -0.69323871729071    0.55042027840974    1.72916881905505
H           0.21084062613420    1.62513318544206    3.25493133141362
H          -0.40868467921386    0.00697179867205    3.65586198969778
H          -0.24656676004870    1.07210047213687    1.02127493084627
