43
-78.857374323700
C          -3.09990092386577   -0.59081833429329   -0.32500257555762
Cl         -4.34223038260595    0.26490133764374   -1.24980216243745
Cl         -3.29291055573723   -0.23803094911716    1.39151606570662
H          -2.10929035454571   -0.25436808586402   -0.65438654207945
Cl         -3.23276161492974   -2.33221470367860   -0.59114661263824
C           3.09983514538810   -0.61055193470664    0.16078348728553
Cl          2.94368379309934   -1.13355450225746   -1.51428638430292
Cl          3.66104077321719   -1.94938010745690    1.16614802466990
H           2.12196576489352   -0.27249562325536    0.52300485855432
Cl          4.24584676265350    0.73990770357025    0.25884402774967
C          -0.51444362298596   -1.53019426290374   -3.08459854754322
H          -1.09689477116473   -0.99055197941138   -3.83475598764355
O          -0.45351172871778   -0.80620643684338   -1.87566549615476
H           0.48776352066634   -1.72125131247387   -3.47890477560100
H          -1.00284468916215   -2.48040093165008   -2.87074004892278
H          -0.07704197731718    0.08277463996494   -2.06975517531440
C           0.48925159006969   -3.54299419932453    0.03616240671334
H          -0.49512328385645   -3.95212178321321   -0.21168069248989
O           0.41027199220144   -2.16870669548704    0.33608907065758
H           1.17366394233333   -3.72606616013428   -0.79627495896797
H           0.87090965093059   -4.04490972161726    0.92437133741608
H           0.10487114058871   -1.69101370024239   -0.46360061987818
C          -1.92207811768314    3.02335150738624    0.56236086168619
H          -2.73844892110429    3.30568321499729   -0.10129126662485
O          -1.25660127988279    1.93697333307168   -0.03761775020267
H          -2.33643145527256    2.74478200807545    1.53520337055883
H          -1.25407605630981    3.88090959360406    0.69123747811697
H          -0.51579035418192    1.65743621869875    0.54579451043517
C           1.44528902083404    1.95589167130745    2.44494615150843
H           2.21717235804939    1.42968186264056    3.01092736148490
O           0.81371782720010    1.09089735418891    1.52700714317154
H           1.91106637921528    2.75727286292333    1.87151672964434
H           0.72282918332789    2.38618997161084    3.14440032734959
H           0.40761614209735    0.33863820562341    2.03427895397109
C           1.49951396297613    2.27190306470183   -1.90901653829071
H           1.74109873055299    1.96958576137978   -0.88738084860558
O           0.24215603415365    1.77182649265515   -2.30823494813714
H           2.24257077578976    1.85965863003937   -2.58972679702127
H           1.52512752413401    3.36366478995477   -1.97645361567330
H          -0.41611369864610    2.02803533807823   -1.63090920560930
O          -0.31629361350253   -1.01441986920812    2.67716677551615
H          -0.04461935508884   -1.60029255769605    1.94500048270904
H          -1.27578012990069   -0.96238132318504    2.63721353748686
