46
-83.945417063911
C           2.87331748289157    0.23764863633611    0.44125617627134
Cl          3.32887708254582    1.90068192439857    0.04548407645844
Cl          2.87836583120025   -0.75050063000843   -1.02366365205225
H           1.86568734128527    0.23965807606906    0.87956186279491
Cl          4.00622537588058   -0.43987619081276    1.62164139496710
C          -0.40799394991847   -1.75552548557956   -0.58078534811867
Cl         -2.11880085345471   -2.07762254946058   -0.31104786108050
Cl          0.54061409151837   -2.39640292834641    0.76824987497718
H          -0.25629423668729   -0.67043389497163   -0.65852486720402
Cl          0.10744923519118   -2.51117886774339   -2.09964737751552
C           0.40904692977504    1.39548488461141   -2.72251150197138
H           0.30502926332507    0.56133610445557   -3.42164416708436
O          -0.33387703164924    1.16392292449325   -1.54517379446565
H           0.09153942925831    2.31858000051849   -3.21411013168322
H           1.45392459081946    1.48719463242486   -2.43178192833218
H          -1.28998277088278    1.13967521288747   -1.77912966990483
C          -3.44439125631521    0.05468256801152   -3.00220852796562
H          -3.12623681649052   -0.95443486742679   -2.72847318413158
O          -2.99320560196481    1.00814147353721   -2.06580729730417
H          -4.53374797135135    0.07560711032267   -3.08976750528563
H          -3.00830162621205    0.32011232104886   -3.96448825712871
H          -3.36142572427369    0.79106338817244   -1.18701891202694
C          -3.39272817505560    3.96648522271812   -0.48546453256146
H          -3.16983419091929    3.42362977025628   -1.40769583315419
O          -2.92827122405347    3.26539610286499    0.64665139446154
H          -4.47116857081111    4.14091800572009   -0.42509061609621
H          -2.88100087308834    4.92768059911569   -0.49777120282648
H          -3.31714173457547    2.37028988501726    0.63766045285064
C          -2.20086721630488   -1.35830326420913    3.20283525209872
H          -1.80595511537025   -1.17821670666515    4.20685243072971
O          -2.20009836659388   -0.17507743816052    2.43933293535688
H          -3.23494064365875   -1.69187840021296    3.28575583987044
H          -1.61073293230845   -2.14389482926529    2.72438197597748
H          -1.26937117667026    0.12354684314353    2.31989446320571
C           0.90410995926761    1.10848842666152    3.33731784408493
H           1.80151038574207    1.71467502366659    3.19451258435295
O           0.33098555381794    0.75165003996318    2.09795755089452
H           0.19333528413560    1.66722262636050    3.95220827767362
H           1.17668640125195    0.18555874822500    3.84960388718656
H           0.12860417600296    1.59666913171344    1.59443031554134
O          -0.20897962464824    2.84846267180919    0.64106808737757
H          -0.14955707843866    2.39117433892204   -0.21476694507861
H          -1.14524307740770    3.10573644325044    0.73633571325945
O          -3.88843487342434    0.64395532097988    0.52732200882576
H          -4.76050810371674    0.43010007814454    0.86329428910166
H          -3.24737082846392    0.26831139953118    1.17063050389504
