49
-87.101559860972
C           3.78759568266909   -0.27151502262119   -0.08237372438820
Cl          3.36874106372256   -1.97658675825569   -0.22163791727973
Cl          4.02226896763365    0.15636194032928    1.61262776482171
H           2.97457560665055    0.33920985006452   -0.49266556061130
Cl          5.27188743669140    0.06158092332805   -0.99436871481608
C          -3.00736522612155   -0.73281194520816    0.58424828674222
Cl         -3.03710779602208   -2.25675525511188    1.48772459979209
Cl         -4.61694242479316   -0.37808434771383   -0.04997446948440
H          -2.29132440946092   -0.82639033229750   -0.24077182340695
Cl         -2.47861540779509    0.56867973286651    1.64076527021459
C           0.71533340060845   -1.48002068140804    2.43934074296117
H           1.25986211929406   -1.00723490936992    3.25622896183302
O           0.81672305010346   -0.62947968418730    1.32042891656521
H          -0.32726091996363   -1.62406262019472    2.73744406928690
H           1.16543431418023   -2.45409025939685    2.23231940635822
H           0.35842745219557   -1.05570066877921    0.55912026289396
C           1.10053826376776    2.53366222328456    2.53745322274268
H           0.51001675909048    2.31577281801681    3.43105868643830
O           0.47608419933471    2.00879770043251    1.38416184731255
H           2.10497368062049    2.12303524799290    2.65999778045379
H           1.16772483236246    3.61374129698247    2.40939611494568
H           0.48191559146766    1.02167190271764    1.44706146131315
C           1.94951017068261    3.12180167508098   -1.61356263346217
H           1.00943506241428    3.67169301119329   -1.70144545640254
O           1.73440413311494    1.84375310284108   -1.05218328263965
H           2.65215654950612    3.70117646649254   -1.00842962787427
H           2.37552383768428    2.97002345853632   -2.60403137559787
H           1.29959552784118    1.96042703373519   -0.18165792085010
C          -2.32606119776367    4.08727622801008    0.55128873799990
H          -2.92048414154601    3.39774851251618    1.15668559656340
O          -1.33587876820839    3.40189796585883   -0.18246233182724
H          -1.88037528394354    4.84251532206575    1.20444982095256
H          -2.97414441617169    4.58371158104115   -0.17005929588069
H          -0.75183837123372    2.93429062571595    0.44508331178010
C          -0.19481318376820   -3.01758399027161   -1.19207164025588
H          -0.73186016119338   -3.27423711737485   -2.10844437137705
O          -0.47189564276854   -1.69299488587639   -0.79943541651772
H           0.87645916196565   -3.16633039897369   -1.35230130899779
H          -0.53119178318238   -3.67201698535229   -0.38773969453401
H          -0.19813700775258   -1.07346205100048   -1.53431954753866
C          -3.24051803765837    1.75196060443110   -2.58803864954103
H          -4.10843259732637    2.10210958825962   -2.02203703109846
O          -2.21299038650593    1.31929549629298   -1.72847624718130
H          -2.89739853538246    2.55470255945958   -3.24787757081361
H          -3.53593767596686    0.89577846090201   -3.19312809291142
H          -1.92146151749892    2.08210211686081   -1.18275676167222
O           0.11894553257742    0.15391865257024   -2.57055943632147
H           0.76587516569234    0.73293796440601   -2.13409847155222
H          -0.74238656420026    0.59449929829660   -2.45257297699595
