22
-52.911967964752
C           2.26427683725242   -0.31381834169877   -0.12117464783101
Cl          3.97612135351932   -0.09747550226864   -0.55090720064116
Cl          1.98282021573159    0.29337416841315    1.51977089598835
H           2.00602174402993   -1.38064598645695   -0.15330960791598
Cl          1.23313518179055    0.56218679880126   -1.26583516541258
C          -2.62807760615999    0.84952260292091   -0.01529865597011
Cl         -1.26376586843957    1.34682604930585    0.99213890735151
Cl         -3.92657231030628    2.05476245934009    0.07294627276613
H          -2.99498047263210   -0.11906350811140    0.34822377081013
Cl         -2.10312461798733    0.65229596716739   -1.69469176111716
O           0.88523243547406   -3.05135669493358   -0.08216426031712
H           0.11603744467445   -2.92210730532797   -0.69032100873573
H           1.06403681943248   -3.99759882647969   -0.06778653943879
O          -1.35874386844386   -2.66876151728036   -1.46434485786884
H          -1.97627298276124   -2.49268283730494   -0.72408632186044
H          -1.35845771567186   -1.86487796640341   -1.99432113198775
O          -2.75682272060673   -2.04629110083111    0.80619822674056
H          -1.92553661313129   -2.03350833100778    1.34471848042882
H          -3.33733819219265   -2.67851756176356    1.23369531240314
O          -0.42049842193967   -2.01844851626542    2.07038197331403
H           0.13719959566725   -2.42670757147414    1.37630022072953
H          -0.05021358867399   -1.14507770359263    2.21283419875300
