28
-63.086346306042
C           1.63692254838282    1.43407149678695    0.15561965628203
Cl          0.89679462026069    1.51343421683287   -1.44896504032083
Cl          3.37238888363433    1.09301922946991   -0.00054228471903
H           1.17441526125039    0.61748406314832    0.72824588051873
Cl          1.40516910706611    2.96410114909268    1.01323203047210
C          -2.70285021707606   -0.20831355889516   -0.28221904723287
Cl         -2.21947866915602   -0.29259766384245   -1.98909076633469
Cl         -1.90160009752904    1.17239010526961    0.49809671891924
H          -2.39846757756783   -1.13874886176216    0.22406362849060
Cl         -4.46531514445790   -0.03612274817416   -0.16777912305926
O           0.56548440580685   -1.14680792564949    1.23316753877953
H          -0.31349618276949   -1.51706253864402    1.42426985477249
H           1.19912553988260   -1.83607011790438    1.50087722209822
O           2.25584969236787   -3.30023588171512    1.40154649066615
H           2.78042580907756   -2.92564548345233    0.65313631842499
H           2.89359120286128   -3.69004209960692    2.00863331306822
O           3.37138978193337   -2.12038943193811   -0.71155701348899
H           3.66822831891065   -1.21689248027387   -0.56912417775957
H           2.54367010293973   -2.04674524485627   -1.22715854044535
O           0.05964362331588   -4.15390728078252   -0.15034051810201
H           0.25833833913362   -3.55362734869930   -0.88653679181368
H           0.83145109367902   -4.08711642139872    0.43671809044476
O          -1.67849323931477   -2.68472509111162    1.19729006132682
H          -1.12254326133241   -3.30651342123408    0.65170881786920
H          -2.18847775624778   -3.23812856925848    1.79297182677137
O           0.75180507334421   -1.78163548733686   -1.40310697809011
H           0.61403841991599   -1.44107774290007   -0.49271712456918
H           0.23748398407404   -1.21979659237008   -1.98849173504260
