27
-67.273079050673
C           0.08119133798043    1.86944148183735   -0.21797338812225
Cl          1.43992070312732    2.93794402215980    0.17185546392518
Cl         -1.45577472494100    2.62398524792471    0.25599658904551
H           0.18900055085453    0.92123690421754    0.32666887463348
Cl          0.06201496348933    1.54403842727102   -1.95622338669148
C           3.25092420924330   -1.04865371834342   -0.06362325977554
Cl          3.08409379298035    0.07408161263338    1.29470802868092
Cl          2.90726661225689   -0.20075298781113   -1.58117428657588
H           2.52988971679516   -1.86225133836325    0.05161168089476
Cl          4.88970849586623   -1.72013601261394   -0.10359611479293
C          -2.87918522082180   -0.92238964267093    0.04931482285507
Cl         -2.86838956145961   -0.26479829670694   -1.59506018772601
Cl         -4.24494018148147   -0.25544550950546    0.95794253511054
H          -1.93222925150657   -0.65628350082509    0.54913724301314
Cl         -2.98981475843411   -2.68757191986880   -0.01642108462825
C          -0.09943425822294   -0.82355924008299    2.75830235133658
H          -0.65351472642532   -1.69289271776429    3.12370491329616
O          -0.17982400953354   -0.72567904170958    1.35199385930134
H           0.94014400247675   -0.89188565132671    3.08708790480490
H          -0.54497993718595    0.08220612624036    3.16820319227840
H           0.20302429962791   -1.54275444811874    0.95312246329663
O          -0.02071390296957   -1.80239970636013   -2.30873924983411
H          -0.91522392503691   -1.44050344660234   -2.37074855286880
H           0.58619775211807   -1.06715513515770   -2.47306276013980
O           0.70018344850225   -2.90011682126787    0.03251925195317
H           0.17564845386222   -3.69554750288583    0.19608149549872
H           0.46627675515271   -2.59872159258535   -0.87374821986345
