24
-62.186463752535
C          -0.26440425005102   -2.73534300641758   -0.46805058723790
Cl         -1.88573102951235   -2.15757158378279   -0.87924712033525
Cl         -0.35072867379586   -4.37644506870974    0.18528309156518
H           0.35388186592398   -2.73659694824270   -1.36906166825441
Cl          0.48192987551414   -1.65024565255287    0.71485722083911
C          -1.92846115981906    1.09683085793891    0.35839203603891
Cl         -1.98905984655824    0.37871327156351    1.97008826043213
Cl         -1.39381282746045    2.78113282829798    0.46350110866501
H          -1.21196908129443    0.54673900425098   -0.26097703316126
Cl         -3.52147950896435    1.01552468240066   -0.40502844694004
C           2.05087434536014    1.53018429156759    0.18309720180844
Cl          3.33533819108422    0.36488970328765   -0.15646092897097
Cl          2.66538167878189    3.17358074035557   -0.03898476888900
H           1.23228277183616    1.34540161770833   -0.52409249082671
Cl          1.47053724066447    1.30312864118834    1.83867179448279
C          -0.59658768728358    0.96747925260301   -3.01612249837661
H          -1.29093526611688    0.22996329826112   -3.42742775772424
O           0.08578686709509    0.45125752234717   -1.89330446818610
H           0.10337773585370    1.27991486259738   -3.79578220877820
H          -1.15983819837439    1.83515286198240   -2.67666381846830
H           0.62670993840039   -0.30969231568473   -2.17465828524789
O           1.93599403546247   -1.58603498771100   -2.37862504319387
H           2.50596749224903   -1.62011920579144   -3.15064139027051
H           2.49015842900384   -1.31622342019836   -1.63485139355988
