36
-80.604183956078
C           0.39707722842842    2.39547455568964   -0.01523592302625
Cl          1.08906987868121    3.95911548044195   -0.47504785787224
Cl         -1.28371097897794    2.30315723590185   -0.55674093379763
H           0.96183685780340    1.59879682178642   -0.51341669732507
Cl          0.48070935554999    2.18940801900142    1.73649715351609
C           2.28534837302746   -1.36273638947801    1.10782905175173
Cl          0.55428770033289   -1.07225735922061    0.92171093426197
Cl          2.65631357957217   -1.75491580383798    2.79526196093704
H           2.56814369405465   -2.20249629612177    0.46334261086124
Cl          3.18920544374124    0.07581522260890    0.61518660432686
C          -2.71325361864046   -0.86987839425000    0.41734003107381
Cl         -4.34963050697162   -0.56991162979179   -0.18624056590470
Cl         -2.52322714772299   -2.58463177311693    0.79804626372145
H          -1.98919758563153   -0.61015047518686   -0.36531939582984
Cl         -2.40773302048809    0.09875238159930    1.86156647649304
C           1.49812271151179    1.51312909223658   -3.34595204521919
H           0.65451605563501    2.19733837659445   -3.26056868871205
O           1.41181298476081    0.59748945436360   -2.27490004847147
H           1.45067140653404    0.99911393290930   -4.30934009387310
H           2.42667602110930    2.08665868206636   -3.29423825401007
H           2.15103233375403   -0.05629198276078   -2.36667279095298
C          -1.71582824207883   -0.46693492889587   -3.17828119893759
H          -1.20592590822237   -0.71201098973465   -4.11341104191750
O          -0.90989640309983   -0.78033307749979   -2.06165697822318
H          -1.98533162267075    0.59207101759725   -3.17998562048546
H          -2.62313045665701   -1.06437341697318   -3.09959088211091
H          -0.07686955863366   -0.25679158668129   -2.11945318797307
O           3.39627120863867   -1.17869046514571   -2.47843931594769
H           4.12618246695576   -0.88482351520645   -1.92933924251897
H           3.05998191336792   -2.00355087316356   -2.06953296293895
O           2.45613585160590   -3.36999778876218   -1.19465244904063
H           2.76809468754345   -4.21682794330989   -1.51874239583782
H           1.47575215341489   -3.37352731978852   -1.33419856492791
O          -0.17137336014732   -3.36150301251711   -1.54186276657386
H          -0.45099349270406   -2.46518243038337   -1.81263209645687
H          -0.68044061662908   -3.56178276778265   -0.75182308876122
