39
-85.688103444123
C           0.99144631895103   -2.20751239809546    1.13587995469708
Cl         -0.53716111628360   -3.01854041653244    1.50378211300324
Cl          2.18992053598166   -2.58132268633003    2.38223671527303
H           0.81934014028402   -1.12654267522381    1.11880316927844
Cl          1.57608377840054   -2.72843563163066   -0.45014153976655
C           2.63696776487524    0.80743251833155   -0.87363416351521
Cl          3.07295860071383    2.50077847309812   -1.13398304757422
Cl          2.01316869933887    0.10914866443316   -2.37529472691611
H           1.85430501376398    0.76022221818136   -0.10354501576518
Cl          4.04994201566354   -0.10431938970918   -0.31809434080084
C          -2.80028737559770   -0.42043330271316   -0.89297978522905
Cl         -3.74739861876257   -0.20612136471274   -2.37160125426789
Cl         -3.60192461195536   -1.58084566516285    0.17439408316737
H          -2.71684389654294    0.54449165284776   -0.38353547246807
Cl         -1.17869568991091   -0.99784682720967   -1.29602269966832
C           1.31664275897929    4.20039474047613    1.81841160369588
H           1.16087333658389    5.19070899482945    2.25419240550149
O           0.37069996414091    3.27489993588810    2.30316449401642
H           2.29966317648847    3.83560623497436    2.11144350212588
H           1.27889768013538    4.27932749401294    0.72767346137728
H          -0.52260294406244    3.57297922783483    2.04810487768664
C          -0.72834281071771    2.67969133746204   -1.93950149858696
H           0.12997985725054    3.34231463596120   -1.79724554760671
O          -1.21451297851645    2.19582202102542   -0.70684935400145
H          -0.41459507698668    1.81287517982215   -2.51778345622793
H          -1.50886125263654    3.21205565227764   -2.48862412420123
H          -1.51440132681557    2.94441355437702   -0.15683139401960
O          -1.78423678227438   -0.08458532466906    2.59341343793210
H          -1.91119370850986   -1.01147826769210    2.37374559162723
H          -0.95991947643431    0.19739757067994    2.14650750918917
O          -3.54366587266946    1.63825730020353    1.63224636370849
H          -4.34960570054896    1.56379089166769    2.14495279180954
H          -2.91069860383694    0.98831743818579    2.02798836054618
O          -2.15635000531830    3.87453029269067    1.27459717662562
H          -2.70111202113200    3.07419251125785    1.47228754528266
H          -2.74492600117424    4.62865079132230    1.33099991209244
O           0.29891153571253    0.85106721265045    1.11398307731978
H          -0.24986966542452    1.19118316549972    0.37930612849665
H           0.48001952455026    1.64158985911090    1.66501588785134
