27
-65.341898521812
C          -1.85514215661574    1.56243219407348    0.01405899558368
Cl         -3.01682401060595    0.23129608027571   -0.00794375809906
Cl         -2.42686174265523    2.82891201897843    1.10807933203321
H          -0.89872674368359    1.17547965445987    0.38760212101443
Cl         -1.65199822006506    2.20434322529579   -1.62009712229542
C           2.57933541594942    0.72128412223079   -0.04993789986099
Cl          1.66609867389549    2.02144541869389   -0.82834661116253
Cl          3.82652802358315    1.40869590495251    0.99924102925127
H           1.88479598413424    0.13511531390524    0.56072237055399
Cl          3.31918536042443   -0.31552598075483   -1.27213351603686
C          -0.35313745091238   -2.18182320413307   -0.48539270179886
Cl          1.19353901759419   -2.68472846290845    0.20826692029926
Cl         -1.16147665564395   -3.56494987673640   -1.23564366344044
H          -0.98454102572824   -1.79362101166452    0.31896832068361
Cl         -0.09632917117646   -0.90306687324742   -1.67987151313000
C           0.46886749057531    1.08407005975931    2.91586629392440
H           1.01260396654005    0.58115534522042    3.71985442741827
O           0.21699564577809    0.20126477930095    1.84099531667461
H          -0.46128326348940    1.49836864290206    3.31309609863335
H           1.08186646940097    1.89540110348133    2.52681112001049
H          -0.36069766809174   -0.51155563060626    2.15922202379809
C          -1.83236501558955   -3.05805101357561    2.74606022034148
H          -2.34163586870639   -3.69298563158615    2.01712535391536
O          -1.80291038376045   -1.70927162945068    2.31840871059657
H          -2.32323368124342   -3.15359164703283    3.71768388321181
H          -0.79609531298943   -3.37834041490505    2.83467433098305
H          -2.70526535432457   -1.38862597715593    2.20149777608059
