36
-80.602323361743
C          -0.65418751367159    2.43564284544159   -0.08810898776907
Cl         -1.82516584447500    2.24237203932643   -1.39704040939407
Cl         -1.30979000504529    1.75996714606877    1.40741798664771
H           0.26094400174223    1.90405682530472   -0.36900094259452
Cl         -0.27403374014342    4.15031356192088    0.13320855190709
C           2.83725579980529   -0.01579744327234    1.32428944462248
Cl          3.07070723190410    1.68344511039889    0.88722977672963
Cl          1.13738834337742   -0.45423991367682    1.12361275635094
H           3.44324108478899   -0.64567361083740    0.66384343107311
Cl          3.33638507063181   -0.27676435586264    3.00489531942481
C          -2.27790911602892   -1.56089676065367    0.09631222861895
Cl         -1.79099759415257   -1.74379727890774    1.78593902694951
Cl         -3.64800238945828   -0.45133072772023   -0.02562815309094
H          -1.43386940198317   -1.16343543381477   -0.48152656888834
Cl         -2.72063583091740   -3.13737351918437   -0.57263929087401
C           1.05762067027601   -3.78908087939280   -0.52639863201836
H           0.14488915476329   -4.24833689791500   -0.91214117196543
O           1.63877219549982   -2.93431665031451   -1.48819032991113
H           0.82277807013851   -3.24882167354907    0.39439216248663
H           1.78360579623476   -4.57147874077184   -0.30878892505933
H           0.99166790677871   -2.22579952483798   -1.69696470239508
C          -0.83476718461644   -0.97102739134718   -3.19287223149361
H          -1.42109649658830   -1.88849069817655   -3.16814624946786
O          -0.11935426426191   -0.89651482729453   -1.97620437726936
H          -0.15348983052090   -1.00413103650672   -4.04700580072938
H          -1.50954356011224   -0.11846773429757   -3.30003684578954
H           0.42109046323877   -0.07118492389680   -1.98442871310292
O           3.98124414602598   -1.78176526047942   -0.92192571293577
H           4.66094966890733   -2.39974889609388   -1.19716219151262
H           3.11882719836401   -2.22228475484691   -1.11613212698170
O           1.38253646669845    1.33243401912944   -2.08348898401840
H           1.22766360040342    1.91619714423631   -2.82821937190228
H           2.33317665799682    1.06982486683672   -2.13254383108008
O           3.94622931833413    0.62154542030417   -2.17902734229124
H           3.98747109467883   -0.27359421026064   -1.78358157084142
H           4.43732510734948    1.19925011475181   -1.59074422081939
