36
-80.601352035710
C           0.22337633008250   -2.49766756369991    0.19560189141330
Cl         -1.38687627854531   -2.31810088297994    0.90048021462520
Cl          0.10498934071609   -2.59949694760527   -1.56328703327296
H           0.82279093584859   -1.62573497080238    0.47755653737765
Cl          0.99991190126631   -3.95288751999788    0.83789724844380
C           2.39268979874104    0.88402011922964   -1.08168532525480
Cl          2.94560898270641    1.86748286663094   -2.44457548337594
Cl          3.00313391178580   -0.77205086314150   -1.23742041805648
H           2.77184926751560    1.30819546947153   -0.14354160421525
Cl          0.62738886521488    0.86891763491366   -1.02925919857813
C          -2.70988867587947    0.82821677932312   -0.50924890995410
Cl         -2.42871828159587    2.45208678650713   -1.14713511502451
Cl         -2.46420094930667   -0.36303907228297   -1.78884466280854
H          -1.99750297695894    0.64822989715670    0.30566548519132
Cl         -4.35611102257479    0.71117068113880    0.12868224928689
C           1.84094835076072   -1.16935811784214    3.18437694067772
H           1.04896916000299   -1.90972557580068    3.28743417471641
O           1.52224169777915   -0.36679490310895    2.06654943005155
H           1.89595940958332   -0.57195478600068    4.09858911515175
H           2.79196803142854   -1.68618208238329    3.03608316664799
H           2.20908692804948    0.32458458577967    1.97361369734509
C          -1.63357865855821    0.58677585093371    3.14634089683481
H          -1.08591661849570    0.88920002368972    4.04287430922821
O          -0.90337326779484    0.89178258403304    1.97639540888819
H          -1.85595539073403   -0.48138099900304    3.20093763016061
H          -2.56836993684365    1.14299548653235    3.09516203173888
H          -0.05105202840029    0.40436114509988    1.99840586491763
O          -0.39544656023591    3.52067677772881    1.34988798209670
H          -0.72195230085443    3.61024203301346    0.45128345739630
H          -0.60725470198697    2.60804595959106    1.62120705756283
O           3.33508427890383    1.65345767456723    1.75110171007911
H           2.91383010977372    2.54364489497713    1.83005298283128
H           4.26699529721420    1.77621571207049    1.93771629462092
O           2.16519990814262    4.02217029931842    1.90651429317285
H           1.22813437639977    3.87961569377481    1.63927607460084
H           2.13024387144378    4.55250794611316    2.70412394229189
