33
-73.582718955878
C          -1.91765284073321    2.27305474574357    0.29826923177360
Cl         -3.23327949431622    3.43198478554354    0.51977127699132
Cl         -0.41339554202708    3.11567809558743   -0.10437784864640
H          -2.17460029992713    1.58465887972310   -0.51547850551336
Cl         -1.68897967739788    1.31995286914480    1.77319238542469
C           0.40508974478347   -2.52408321590062   -0.46525834448543
Cl         -0.11233087957013   -1.65507037545538    0.98436168562819
Cl          1.62118586645478   -3.73745142825584   -0.04476344633188
H           0.82733722513328   -1.79244206666917   -1.16114083646279
Cl         -0.98284084816983   -3.29191414647735   -1.23447934147483
C           2.20157950357211    0.88251977590724    0.29316970942521
Cl          3.21785553134691   -0.55868764529226    0.18088441069421
Cl          1.72475452606348    1.15488277661127    1.96631541469356
H           1.30938194341356    0.72564596757504   -0.32762477816915
Cl          3.08190239468718    2.29035311736579   -0.32553862626200
C          -3.64825400327352   -2.64801347233650    1.09739061643207
H          -4.10712277063300   -3.15064110102294    0.24856555765325
O          -3.49568851193772   -1.29174748556056    0.72866123376557
H          -2.68301938488600   -3.11213704719536    1.31218810311038
H          -4.29971097018894   -2.74792841628930    1.96919775774251
H          -3.06692612657822   -0.80953221085749    1.44856019473708
C           0.50270376734637    0.83811263756641   -3.05234703848180
H           1.58620082826771    0.92954172971245   -3.11567905724226
O           0.21735256261544    0.08952696344824   -1.89089946260366
H           0.13434439733952    0.33132020411742   -3.94870684373035
H           0.06382014288449    1.83804252271474   -2.99682173109890
H          -0.75350174251343   -0.00693794317102   -1.81022902165980
C          -3.27437461641982   -0.51352774346692   -2.68209437534327
H          -3.08975986110772   -1.55847114989319   -2.94570765025111
O          -2.50807072627016   -0.13425523322398   -1.55617276404403
H          -4.34038027944042   -0.37176483482013   -2.49312926461335
H          -2.97071774642166    0.12586512635922   -3.50994572487832
H          -2.81085990541838   -0.66178282451406   -0.78855769121873
