42
-88.844232432128
C          -3.31508808900475    1.67070230527488   -0.02683763737194
Cl         -2.99265626078671    0.40104361383137   -1.21263950526085
Cl         -4.35293552673084    2.91914636410915   -0.73270044947790
H          -2.36227918642044    2.11466457989881    0.28111261875157
Cl         -4.10399874748036    0.97214515450248    1.39640998873601
C           3.92098842909671    1.00562814203743   -0.39098929080170
Cl          4.40788507361938   -0.12845542783294    0.87033871288534
Cl          4.72536106810167    2.56005986732960   -0.14398453883954
H           2.83487203279840    1.14655403869929   -0.34773685090544
Cl          4.34674292678436    0.34662846645762   -1.97795790084183
C          -1.74327742623824   -2.66377041970532    0.08103112930693
Cl         -1.02393447875068   -4.12636272034904    0.75869857211841
Cl         -1.46902787378844   -2.60644800440457   -1.65879852232653
H          -1.27685245338325   -1.79094610521101    0.55355884542920
Cl         -3.48184651522902   -2.64067756529688    0.42047125850076
C           2.75926343964061    2.34634252952844    3.01278789064952
H           2.26443082365121    2.33233003959739    3.98895396237078
O           2.00759918447333    1.65055937146410    2.04626023239020
H           3.76210133084563    1.92365589270674    3.11430917716127
H           2.84251916842662    3.37680300563146    2.67081756038042
H           1.94534713190329    0.71412805563160    2.30867422765240
C           0.59130183054380    0.54837289278180   -2.58685004708300
H           1.35823972531102    0.01981242517203   -3.15848422963762
O           0.94866162805710    0.63488057020808   -1.22449716945220
H          -0.36636676406067    0.03755243653059   -2.71197690110437
H           0.50718723189263    1.56727755490352   -2.96221042871251
H           1.00656989439111   -0.27566062256956   -0.85530708343499
C           2.09837459731799   -2.73349904678329   -0.50251867070411
H           3.13400754293283   -2.38372327071988   -0.50525473098602
O           1.22521230527983   -1.75251798761090    0.01244483673444
H           2.03192144405032   -3.65927748247554    0.07415213334091
H           1.78371854183650   -2.93284763897048   -1.52575806435598
H           1.47187278187552   -1.55073256218926    0.93621386613681
O          -0.39509735864216    1.86219448303014    0.76777617297570
H           0.38978865104769    2.07237876183612    1.30216472290654
H          -0.01704110627867    1.51183009830517   -0.06386912227964
O           1.38316401770660   -1.01275333415715    2.67713005928456
H           1.44361674062423   -1.66954051503856    3.37261366309170
H           0.42782947214544   -0.82234488470508    2.54716519153337
O          -1.11849730934738   -0.35723150708143    2.02041439779346
H          -1.96080049775079   -0.20823844400244    2.45518628347405
H          -0.89864090139950    0.48286613169470    1.54203462495950
