36
-78.672491840084
C          -0.16646483373836   -2.23584628152229   -0.32683172356976
Cl          0.70410590829796   -1.68404897866559   -1.76197402739834
Cl         -1.15477188437616   -3.65239951802226   -0.71693334108001
H          -0.82908688720495   -1.43948518360372    0.04046604387686
Cl          0.97749946613895   -2.63220888513784    0.96109692155352
C           2.62746714585201    0.91556311121210    0.12869248916042
Cl          2.04654196804933    1.52832370101593   -1.42581041631416
Cl          3.62590351848660   -0.51707310674695   -0.11666278951901
H           1.76611672716142    0.66208123421191    0.76400895737721
Cl          3.56483812085592    2.17610061574052    0.95220055876631
C          -2.86364873774758    0.83588028224947   -1.34400763015386
Cl         -3.56877960656550    1.71895203102287   -2.71369554347610
Cl         -3.34427511582906   -0.87001819311648   -1.40938623875396
H          -3.21201874986565    1.27161323038798   -0.40409994526610
Cl         -1.09804336199842    0.96308454096795   -1.40191212060526
C          -2.60201981169424   -1.65805296649810    2.31213031993276
H          -2.87020469437822   -1.37263164039753    3.33214215992034
O          -1.88288677687573   -0.62527064353128    1.66619307042913
H          -3.50650462695151   -1.90721235586385    1.75449776173864
H          -1.95121694390861   -2.53054121609986    2.34374990140148
H          -2.44008107982262    0.18351135293732    1.64621890919092
C           1.11253678270578    0.04884341109037    3.49327872042332
H           0.42237723701150    0.13688660873790    4.33586632475460
O           0.51032525414510    0.51191780143882    2.29763222051853
H           1.42955649052398   -0.99016646128220    3.38882662712914
H           1.98298743845647    0.67613813861678    3.67268733131890
H          -0.27633383788814   -0.04162181143916    2.10396762578201
C          -0.11962523810208    3.73161257675910    1.10631747654391
H           0.86883262677940    4.05004202639105    1.44397975159279
O          -0.75584165212530    2.93234815432839    2.07677496468388
H          -0.01701736487858    3.19910749506755    0.15694964721964
H          -0.74197689134883    4.61323749931493    0.95574427443363
H          -0.19544056246728    2.14250900253190    2.23995704903460
O          -3.13095921203094    1.79418596452641    1.58622320751583
H          -2.28771388161481    2.29701448362048    1.69434776956506
H          -3.71357846088363    2.16202780987064    2.25243233566471
