42
-86.912323736638
C          -3.66054244935245   -1.53635364866090    1.16137426861958
Cl         -4.24743285956000   -3.03840812032114    1.89527353370993
Cl         -3.76844513627199   -1.64726652548218   -0.60178486007481
H          -2.60875389588342   -1.37337194892696    1.43487825694281
Cl         -4.62249403368374   -0.16315377807738    1.73072138708249
C           3.17967610210102   -1.35004214280181   -0.04147554912783
Cl          2.96531722801566   -2.99113341032871    0.58346322090176
Cl          3.85235386339350   -0.31098629773822    1.22050153847425
H           2.20029946467129   -0.96438610828563   -0.34973337354870
Cl          4.25408005360912   -1.37313382519649   -1.44646701580939
C           1.15612251835153    2.59228474859357   -0.20732006552785
Cl          2.32566054751792    1.79983326608545   -1.27105333766010
Cl          1.59386234606245    2.30024219137364    1.47517907118139
H           0.16162622638730    2.17416857812176   -0.39910661675408
Cl          1.12564268151080    4.33122456606979   -0.53038878413202
C          -0.03959223210706   -2.12436325687563   -1.69021690508126
H          -1.11870513258759   -2.22851577480110   -1.82382128338330
O           0.26954344826242   -0.96341144561016   -0.94399483556660
H           0.44369262303817   -2.09650421237392   -2.66948733724306
H           0.33969403006405   -2.97920397357314   -1.13183716333932
H          -0.09653981223977   -0.18351115113475   -1.42043200820282
C          -0.69435317941984    1.63062358889833   -3.42162638254093
H          -1.35750908662839    1.10381202343630   -4.11404405010695
O          -0.87656043682222    1.18002885557450   -2.09866892006757
H          -0.87922610000331    2.70456967625319   -3.49829724386515
H           0.34128262162717    1.42823150157131   -3.69300245122742
H          -1.79917346067659    1.39024692669629   -1.81186723508137
C          -1.91358890063064    2.53693640514338    2.36019544803478
H          -1.01973513291605    2.60858673788048    2.98446298786683
O          -1.64356504632277    1.83963882505603    1.16465407714625
H          -2.23202038173981    3.53985424990542    2.07999245541719
H          -2.71312751110203    2.05309238827413    2.92914261456780
H          -1.32435501880293    0.94139744451374    1.38807953543758
C           0.20496551728849   -1.05657049042391    2.52560836891865
H           0.54905597522126   -2.08806943899072    2.42500480632788
O          -0.76404334998376   -0.74747567423667    1.54187497874384
H           1.06135671924493   -0.38262359436265    2.45650191081123
H          -0.27289951180023   -0.93177626106433    3.49642661951619
H          -0.36129985213012   -0.88155607312782    0.65241792928208
O          -3.26269229917911    1.73420674089706   -1.03028106762027
H          -3.84844134617525    0.98633611653572   -0.88957270747815
H          -2.82530880139378    1.90874319491216   -0.17591658602329
