45
-90.067588595307
C          -0.77850441767880   -2.57203388697240    0.01118041541406
Cl         -2.02801690853842   -2.05757556935886    1.14847579639117
Cl         -0.22916303758383   -4.20353667140370    0.41288706968834
H           0.07313675240518   -1.88919191752118    0.08011699440514
Cl         -1.41176947506984   -2.53718744989859   -1.63662993622303
C           3.33960560494778    2.03180263964008   -0.75748689284947
Cl          3.93493748014544    3.68297135934530   -1.00506378149441
Cl          4.46374531266632    0.86944344748821   -1.47181317178864
H           2.36170671108417    1.92443330491760   -1.23930682565376
Cl          3.15811662017649    1.70687574591403    0.96696076796187
C          -3.46890319370658    0.90756127019299    0.05435271683235
Cl         -4.48372126098011    0.61535282674058    1.47337511672262
Cl         -3.91953132785936   -0.19615600245807   -1.25108049945917
H          -2.41959890974889    0.74075752446638    0.32751716769115
Cl         -3.65082675273465    2.58237366028243   -0.48663196939045
C          -0.53836568679457    1.28667412770975   -2.54775659584508
H          -1.09636724704351    2.21551920677136   -2.41400287285602
O           0.50395866443145    1.17975779775088   -1.59700863716815
H          -0.07460148317969    1.28798490238540   -3.53330327737355
H          -1.22612265120630    0.44067473617393   -2.47320315966488
H           0.10692862363466    1.21820406372098   -0.69611891298697
C           2.02852254209435   -1.80719825681676   -2.69952643008701
H           1.15455860019394   -1.87074727692029   -3.35217705104151
O           1.68145403173718   -1.28305042165027   -1.43673043002074
H           2.79742346371700   -1.19740125903274   -3.18273023483517
H           2.41914614340387   -2.81062266082787   -2.53503703243536
H           1.28989094589275   -0.39219104553569   -1.56335335414908
C           3.64636361190484   -2.84833850268836    0.92006518154396
H           4.39959667196873   -3.14500804097838    0.18519090401257
O           3.28925844984126   -1.49349751257743    0.76140532247228
H           4.06836336738324   -2.95568747672798    1.91868948359329
H           2.77571663053492   -3.50404009192052    0.82398988800554
H           2.87726011296713   -1.38711483291656   -0.12077026790864
C          -0.47363796913730    2.24620658269314    1.70777329644451
H           0.55783046511591    2.56573197528696    1.87006222777999
O          -0.52365066042174    1.08773605443404    0.89724924224021
H          -1.01733941714525    3.03141119900852    1.18410589293780
H          -0.95269450717234    2.06496392434954    2.67288761407747
H          -0.00119687706966    0.37698265489408    1.33674476113678
C           0.98877815114365   -1.04919095377330    3.38187266788948
H           1.63314092292038   -0.30344242373789    3.85706854127605
O           0.96192392911647   -0.88313503842615    1.98262881122985
H          -0.03200649015014   -0.92485148717055    3.74212742616095
H           1.33896119537169   -2.04847772741328    3.65216943084418
H           1.87122493526228   -1.02741722161080    1.62803651447744
