51
-98.308858548868
C           1.76276535902439    2.30110339130181    0.19031194764045
Cl          0.96512282340553    3.87573282993034    0.11942262996501
Cl          3.51928904079125    2.51001334179659    0.16826010135848
H           1.45873514340664    1.79086168868706    1.11169107969709
Cl          1.25488229330130    1.30357037030418   -1.17811996613504
C          -3.28764601327655   -0.85705712165701    0.49423195921533
Cl         -3.28769917838005   -2.52862053777679   -0.06025663938508
Cl         -3.28690009038277   -0.81008338312827    2.25433139344752
H          -2.38783250393232   -0.35934150126616    0.12481071812878
Cl         -4.70915031094628   -0.01168125422454   -0.13153427147751
C           3.11722274103761   -1.50539489976922   -0.34880766832140
Cl          2.95579061078547   -0.77586837229286    1.25043636436374
Cl          3.53176342509750   -3.21945543620905   -0.18135837413797
H           2.15982050661296   -1.42452663736183   -0.87662949897304
Cl          4.36997202542955   -0.66405494003256   -1.27182734987443
C          -1.63581068867889    3.28087825409295   -2.52485770703654
H          -1.89599160454831    3.27806517682845   -3.58285715934909
O          -2.34348057035567    2.22142249317704   -1.92234569698443
H          -0.55569772761464    3.14907078304030   -2.42157099270209
H          -1.92033763631393    4.24346224613339   -2.09223352346467
H          -2.16707875278064    2.22498799439806   -0.96155570414856
C           0.07265805901740   -3.17496506789157   -2.01396639753351
H           0.83938655824901   -3.81419664154684   -1.57735314657345
O           0.27216815586657   -1.87101108189046   -1.50552037557922
H           0.17433823587514   -3.18970347005727   -3.10179069237079
H          -0.91423194132491   -3.55696253907118   -1.73999963569430
H          -0.43163397474368   -1.28922991219175   -1.86812177561061
C          -0.09213057235386   -2.85500652766059    1.81134619484211
H           0.97665706234778   -3.08730256738595    1.80093128381989
O          -0.36138135846024   -1.64458073889634    1.13955483584393
H          -0.64461705649042   -3.68389289214388    1.36186577073027
H          -0.42157938059924   -2.73088211090711    2.84213688155091
H          -0.09974610366681   -1.74067808493496    0.19837545238870
C          -2.62187601710347    2.82318592508199    1.61695481392418
H          -2.02001664225580    3.68733632882620    1.91513840054345
O          -1.88677821551657    1.95176550222271    0.78815984334535
H          -2.97974545406745    2.30897642487968    2.51284537347265
H          -3.48072129501717    3.16814335902504    1.04247581603601
H          -1.13795064502308    1.58997760517009    1.30583237389278
C           0.01868409347561    0.69482405815991    3.63743865001250
H           0.82101367415638    0.08546494381218    4.06144113261175
O           0.13411150513815    0.77104796202513    2.23255689690134
H          -0.94660676734296    0.27400721899450    3.93067759762875
H           0.10086566877518    1.70992597742719    4.02475014523084
H           0.02207541879300   -0.13556696802767    1.86437502094989
C          -2.74926189552735   -0.86971382366473   -3.30918690683262
H          -2.45805140880540   -0.51443093197240   -4.30272110770637
O          -1.85819331302678   -0.40563521903343   -2.32051336614158
H          -3.77061412443566   -0.54372088523412   -3.10077474984472
H          -2.71562716113802   -1.95878668717033   -3.29629498328833
H          -1.96293440484078    0.57011556080645   -2.25128605025273
