18
-53.944836937756
C          -2.61319826007509   -0.64016007002539    0.15436896020264
Cl         -2.30744489162011   -1.19416388867398   -1.49584002240660
Cl         -3.88342530926745   -1.62018375889680    0.89854368139602
H          -1.69727738009722   -0.73818850396912    0.74624512784722
Cl         -3.09372144370014    1.06303421952861    0.14327284275926
C           0.27837035768916    2.06225949996465    0.35101284594400
Cl          2.00519303939101    2.29206438850285    0.67658004403829
Cl          0.06490230804218    1.40008277082923   -1.27784059898621
H          -0.11859158669247    1.34526543989354    1.07825976134065
Cl         -0.57921678383404    3.59862357934125    0.50127410962047
C           2.42343203260138   -1.14575502118163   -0.35098944358222
Cl          3.70191006697642   -1.99563294245958   -1.23064630435644
Cl          2.78565918163135   -1.14666725172484    1.37985354420252
H           2.37844402516991   -0.10760288162320   -0.68871356879486
Cl          0.85661753769841   -1.91148207917755   -0.64138701304954
O          -0.30090945464204   -0.33979340713540    2.23458552624179
H          -0.60476762079064   -0.36660965738153    3.14490781358114
H           0.55006125957750   -0.79249412411557    2.20629735583920
