24
-64.113684634186
C           0.58314714431155    2.30163146953335   -0.53664578424136
Cl          1.68092242101419    3.62629201931458   -0.10234641832611
Cl         -1.07257831340829    2.91348458138784   -0.68412794581405
H           0.60587833943359    1.54390881114789    0.24986934180850
Cl          1.09124484366732    1.58138396866335   -2.07430900886298
C           1.78063045330789   -1.93228807039764    0.19372034774437
Cl          2.76298892774511   -0.47653822882441    0.45474744480318
Cl          0.62359447798157   -1.61503644268449   -1.10373978544926
H           1.22363800832364   -2.15252368330230    1.11412078409451
Cl          2.80151951318361   -3.31753868827102   -0.23196917834004
C          -2.40243788470577   -0.28716056912815   -0.11450299488184
Cl         -2.55998079305614   -1.94494847934688    0.46302173071837
Cl         -2.31198735338217   -0.27616524154575   -1.88079724261108
H          -1.48901607395328    0.14000588069401    0.30961675030179
Cl         -3.78662530667448    0.67383433942621    0.42974104969403
O           1.77753138624801    0.08819003843345    3.55466571178328
H           1.43554832208512   -0.81189757081602    3.63493475818683
H           2.58500429812410    0.03555329071769    3.03728892861883
O          -0.31052917200139    0.77570367269664    2.02195159753792
H           0.49302322602957    0.68439671830865    2.58486498528183
H          -0.86457586932062    1.41164620230906    2.48115929575111
O          -0.02520021658016   -1.96230389348552    2.67093392318670
H          -0.41456292626330   -1.11090504960629    2.41396556624856
H          -0.75077569996977   -2.60186998389010    2.70805994305623
