27
-69.204265685219
C          -0.46041773003243    2.35468732524016    0.08132899976849
Cl         -1.41813863084118    3.70383857205783    0.71780567462643
Cl         -0.64909116168012    2.24522937210812   -1.67579687180284
H          -0.81834911839001    1.43043255412578    0.54596009475102
Cl          1.24176802722021    2.58340724854476    0.49598329584465
C          -2.47913604314039   -1.42996083552508   -0.33718664034796
Cl         -3.31028354375376    0.13068607966907   -0.47127629696393
Cl         -3.09240985546087   -2.55570473397941   -1.56197323945183
H          -2.65141157734077   -1.84368973332849    0.66173485453884
Cl         -0.74056460353867   -1.20272444413181   -0.54968157713062
C           2.58849631028680   -0.82508959421350   -0.20294994743627
Cl          1.95856816214644   -0.00232521370676   -1.63482843008766
Cl          2.32989917947583   -2.57149548570955   -0.34930790981958
H           2.06023870149731   -0.46716049145515    0.69017587439308
Cl          4.32133580449504   -0.49286295619475   -0.01852279625007
O          -2.05766280824312   -2.12500812910191    2.61638037735685
H          -2.42212253750382   -2.55966717614970    3.39067459013742
H          -1.11707479330848   -2.43275202774261    2.55692244780755
O           0.50546692199331   -2.75364350747761    2.46991524170203
H           0.82659218381616   -3.11419227108492    1.63893946988870
H           0.87243352717862   -1.84874860736164    2.52077730840545
O           1.19830677212229   -0.11903732214954    2.48146060842729
H           1.63175178874939    0.37815889231696    3.18929300701386
H           0.28314208699743    0.23106059966990    2.40471015376664
O          -1.42644328164761    0.50274007078727    2.39707380954727
H          -1.76567462797490   -0.41446226578617    2.45409245781073
H          -1.97110931909907    1.06122924512471    2.95978702190891
