30
-74.291678234562
C          -2.69395666125588    0.41091132121822    1.09615034282835
Cl         -0.97186922013670    0.79359504254093    1.04562216253265
Cl         -3.59075735070017    1.79471967590655    1.75140750886337
H          -3.04741088706461    0.21918774238722    0.07578275021476
Cl         -2.97054938131435   -1.01503567543909    2.10673254825044
C           0.04655316048402   -2.21430520310295   -0.35675788524927
Cl         -1.64801612740137   -2.55035522418334   -0.73047771854945
Cl          1.08719198842406   -3.34103712165922   -1.24187672161556
H           0.27782822063737   -1.19169852608987   -0.68188208493235
Cl          0.31575136670083   -2.37349512644988    1.38262571895149
C           2.55285022117643    1.83970314625782    0.19422090806083
Cl          2.27204755396729    0.30416996336955    1.02283848247601
Cl          3.49401156152195    1.55909798694575   -1.27828815636011
H           1.59044058310385    2.27984847676649   -0.09095922901207
Cl          3.42191481754417    2.95711551025707    1.25622866277868
O          -2.47416441079187    3.09862167974059   -1.17218187068415
H          -2.86908462876345    2.24958133845475   -1.46057918501427
H          -2.77853104178745    3.24250800002691   -0.27294587644140
O          -3.50926417482957    0.68095823059990   -1.84301300528539
H          -2.84941450940645    0.23636591629095   -2.43280952915417
H          -4.32945887719471    0.70853267361906   -2.33837524066940
O          -1.72262621918843   -0.55542905572900   -3.36468182769725
H          -0.87016382671428   -0.25814795956114   -2.98744756838948
H          -1.77470509309665   -1.49752693697131   -3.18610855070188
O           0.14679733122501    2.82433938572452   -1.45398618148181
H          -0.82365270814125    2.93870276140592   -1.29790924843440
H           0.36888520624822    3.44241249337102   -2.15305041065482
O           0.53890918760538    0.24747913066721   -2.10454394051749
H           0.36052893340940    1.17855194978700   -1.84350557432247
H           1.42074373694093    0.23974406222412   -2.48382416452610
