33
-79.379624520241
C           1.04229264767555   -2.45785065822775    0.43837832161691
Cl          2.59431263985462   -2.28956102596823    1.26672019991419
Cl          1.30289900035652   -2.83058127268498   -1.27212188573891
H           0.50248502765673   -1.50552977850172    0.52523438144544
Cl          0.08359842259865   -3.73315491727383    1.20369047346551
C          -2.92237532746428    0.27102519638085   -0.39636064704828
Cl         -2.14664673621011    1.76049261556289   -0.93612332394683
Cl         -4.57827928073490    0.19761544207960   -1.02142206471190
H          -2.94628203152854    0.26067931676909    0.69843915028013
Cl         -1.99564399128629   -1.12683118266737   -0.96933248025265
C           1.19277522960852    0.93593054763460   -1.54213546106245
Cl          0.56086154902699    0.21620138937574   -3.02903262268339
Cl          2.85085201676934    0.39278148161309   -1.24944687834065
H           0.56815961471572    0.62694174385390   -0.69900015202735
Cl          1.14750981278918    2.69827629959815   -1.66143876359908
O          -0.73510263821062    1.83071380893682    3.93926495819831
H          -0.60338979921487    2.49091412100951    3.24374409231265
H           0.10065739617320    1.34898228980412    4.00288148545139
O          -0.05223151189038    2.97508437533840    1.43776453301786
H          -0.33647580320417    3.44350054193869    0.65091381626754
H          -0.09217456678637    2.01837175959122    1.21366981039193
O           1.73783683438504    0.50231278034852    3.26825518892410
H           2.16155387419551    1.34293723292786    2.97676853449168
H           2.41450313253571   -0.17629325882719    3.22718643261645
O          -0.00184982652327    0.27364379927519    1.23272624545273
H          -0.85273331852103    0.08126576561160    1.67351047362419
H           0.66629545518486    0.27378296215453    1.95463430262447
O          -2.28400511763011    0.07081412955661    2.67125355380839
H          -1.87763724721481    0.76651295536135    3.24397769106151
H          -2.50783819555282   -0.65943275698293    3.25014965236468
O           2.50646015451398    2.88516675229471    2.34947108825143
H           2.69597550647229    3.64017515239999    2.90819489052892
H           1.64048889382287    3.05727707645597    1.92688892476121
