20
-65.157125214278
C          -2.72153397494362   -0.88812842056491   -0.08754916911935
Cl         -3.01645678954172   -0.48048010373517    1.60652584012060
Cl         -4.01791199803020   -0.25633961427607   -1.11081462351025
H          -1.77510170919676   -0.44416931897318   -0.40412985606427
Cl         -2.60158098914405   -2.64112488873375   -0.27477726482872
C          -0.87965216406827    2.54993406736544    0.01248327107402
Cl         -0.28469804134351    1.65588023830635    1.41838525507348
Cl         -2.62112587121354    2.82003445625948    0.15073361670417
H          -0.36417704299220    3.51069842171701   -0.03870518163282
Cl         -0.52461508305304    1.64683210342673   -1.47183103212343
C           2.72152568688161    0.88812398702117   -0.08764199432619
Cl          2.60154859566367    2.64112217842768   -0.27487752815613
Cl          3.01641036426816    0.48050769201992    1.60644646016052
H           1.77512967156682    0.44415216908492   -0.40424695797847
Cl          4.01796386797827    0.25637719203364   -1.11085805420668
C           0.87964869790112   -2.54993259914125    0.01255635309388
Cl          0.28467932145681   -1.65595468896899    1.41850604692233
Cl          2.62113462802532   -2.81997876422208    0.15077409377488
H           0.36417880329358   -3.51069248464810   -0.03866329416223
Cl          0.52460064218621   -1.64685481943387   -1.47177359070429
