20
-65.156375631756
C           2.06074382559499   -0.47230279822314   -1.23917548351237
Cl          0.82287022029967    0.44146473569888   -2.11186406386834
Cl          3.58164694865938    0.42664006756116   -1.22679722946390
H           1.72685650216426   -0.62393005149618   -0.21048329345379
Cl          2.28605086530352   -2.05425396039977   -1.99343669758105
C           1.23411611884090    1.49346743622320    1.94490879840539
Cl          1.42686941499888    2.55739147074859    0.54430797694430
Cl          2.68402003090075    0.49528639057636    2.16636024405986
H           1.08182444720902    2.10207694588032    2.83814648673507
Cl         -0.17379718194628    0.45326663163019    1.71727382936653
C          -2.42987412398852    1.32750876444606   -0.64038388443273
Cl         -2.11691981470020    2.87679611430896    0.15232394464379
Cl         -3.39650847971862    1.57427314057768   -2.10122159720063
H          -1.47472829625844    0.87823060529092   -0.92267524202237
Cl         -3.27214966107516    0.24458707828798    0.46901047536943
C          -0.64828760241735   -2.94962839518941    0.80792922965900
Cl         -0.94423925641061   -1.98074324471903   -0.64009630620616
Cl         -1.75378591958202   -2.47639151233097    2.10327697212520
H          -0.81735105657892   -3.99968896823280    0.55958674291969
Cl          1.03044431530419   -2.76262144027777    1.33169885222905
