20
-65.156424724931
C           0.12519431631624   -2.29029903571815   -0.55204333707490
Cl          1.65651329175714   -3.10332501336825   -0.89774332573624
Cl         -0.03367024537789   -0.84449804643617   -1.55764546893692
H          -0.70535369890839   -2.96180606765656   -0.77864026529596
Cl          0.03747627196004   -1.83936680065291    1.16087574791504
C          -0.18648394860641    2.67820612514663   -0.59921311890963
Cl         -1.64783606873369    2.32744981432874   -1.53605977667872
Cl          1.25263834415444    2.32843198328733   -1.56322326614774
H          -0.18697886079736    3.73546544081562   -0.32853839637917
Cl         -0.17897612324434    1.71813773612990    0.88927727174963
C           2.98800048465308    0.07080691065805    0.39666137660223
Cl          3.55327283952402   -0.16535092623690   -1.26177692974796
Cl          3.52326253127919    1.64229085860927    1.00511384499475
H           1.89626194189280    0.05226855974533    0.40661092194039
Cl          3.58850383039720   -1.22406661387134    1.43977126091382
C          -3.08317177151330   -0.33182869900792    0.35124168000777
Cl         -2.87308391945103   -0.17273824359906    2.09910349447890
Cl         -4.47501946645874    0.61213250746344   -0.19313608639874
H          -2.18670480586878    0.04091752545140   -0.14932774769300
Cl         -3.29756353056794   -2.03127660751370   -0.08236640536529
