32
-83.565260949778
C           3.27821312788713    0.25920733105516    0.96085421826205
Cl          4.31914571171227    1.25217261658394   -0.06781819800660
Cl          2.97018885870248   -1.29661764312525    0.17480267046256
H           2.33216289644122    0.78708751428733    1.10658767320510
Cl          4.04890389154019    0.01140818424525    2.53548401490459
C          -0.29724316788832    1.76987579570685   -1.39312581169965
Cl         -0.33421487365362    3.34671815384296   -2.20107182087552
Cl         -1.59839696944236    0.73999385895216   -2.00391497569147
H          -0.43166589692939    1.92420990044771   -0.31857457004939
Cl          1.26888600161322    0.99454056787601   -1.66441070339257
C          -3.13755504997413    0.28492298157223    1.13570942456411
Cl         -4.34257975808350   -0.07371090672676   -0.10694855050486
Cl         -2.76263190155687    2.01161164126850    1.13385155903187
H          -2.21127865161133   -0.26102653806545    0.92427687292032
Cl         -3.73863093427413   -0.19210056338966    2.72971057487126
C          -0.19149317754627   -2.37806410773744   -0.87451065983050
Cl          0.56435600581586   -3.80513926846131   -0.15207353165131
Cl          0.36172137190428   -2.17880049169419   -2.53874703685544
H           0.08340327298041   -1.49572326333385   -0.28601736613231
Cl         -1.95424134621739   -2.54393857256852   -0.83528518463938
C           0.01212809136005   -1.02922426523654    2.56010812965898
H           1.05747946622366   -1.05233510184648    2.87777109298244
O          -0.14216929885600   -0.30192243121512    1.35740002984177
H          -0.59824986011075   -0.60183930612475    3.35966964713401
H          -0.32110482601917   -2.04701551591527    2.36396751900654
H           0.14664338195304    0.61541202958783    1.51375096558554
O           0.77247229441369    2.29776752100534    1.59337845748949
H           1.30061917593334    2.91206455480426    1.03956230084840
H           0.39027067025199    2.83224719491886    2.29215109122202
O           2.21604767696693    3.84614645303196   -0.07219255715790
H           3.02476136157203    3.38033883992866   -0.31010361172177
H           1.74920504845096    4.04247109878042   -0.89057308648508
