26
-73.395145254799
C           0.25162753047102   -2.10766644610033   -0.50272906965926
Cl          0.95160481548037   -2.36540860332574   -2.10248639906014
Cl          1.22219752511581   -2.92217691943764    0.73135276730595
H           0.23490002514041   -1.03776012144251   -0.27974807718272
Cl         -1.41118154442913   -2.70750000628796   -0.46408032963214
C           3.09733272244604    0.27385567593022    0.68664502937628
Cl          3.70299599655811   -0.78947631551798   -0.59137701253592
Cl          3.61941315488548    1.93952363625998    0.38962098775228
H           1.99870073876308    0.24686051535994    0.69005083242198
Cl          3.68834550569672   -0.27900652744170    2.26243905756843
C          -3.20225322155633    0.10465264897667    0.78906628356667
Cl         -3.90478138308053   -0.50405165494367    2.29465066276536
Cl         -3.06736575082134    1.86999385406551    0.85657563295683
H          -2.19782240972400   -0.31209669130983    0.66824490280577
Cl         -4.19902612018443   -0.37450474769703   -0.58929844497515
C          -0.15704420566670    1.79246983694831   -2.18811761005261
Cl          1.45574598163294    1.07334032096731   -2.11544281853754
Cl         -0.32487237658628    3.04074892447528   -0.94745296629429
H          -0.29492402914287    2.25879817759879   -3.16814207518183
Cl         -1.39017496293807    0.54341251043024   -1.97542373924001
C          -0.01060651130666    0.29974495071403    2.55431703598069
H          -0.99584539256722    0.45962227013510    2.99980910437651
O          -0.03635055659012    0.53547225445397    1.15715491757300
H           0.71999076830887    0.94608772213216    3.04757915674747
H           0.28204331332161   -0.73931972096833    2.69451914866812
H          -0.32165416356325    1.44622137690872    1.00772578327502
