38
-91.810760430501
C           0.28978352663915    2.59897758699468   -0.66149219537972
Cl          1.95945481180132    2.72353259028462   -0.09751363270066
Cl          0.25705546210631    1.92344010685076   -2.29302542066887
H          -0.26001864772629    1.94032694806239    0.01976266225393
Cl         -0.46949652996742    4.19645115937451   -0.64625434590715
C           3.38871469396169   -0.52075995441675    0.05351087131032
Cl          4.93763511883686    0.27188607936219    0.37705354724709
Cl          3.43314897634897   -2.18142518247258    0.65107345758119
H           2.59825929514659    0.01175032533653    0.59467253459635
Cl          3.04439962105532   -0.50687952157171   -1.67929219018733
C          -0.09749603228640   -2.57734590931127   -0.26418133127712
Cl          0.92960593326782   -3.42131415168261   -1.42921685694159
Cl         -1.72155620840322   -3.28091483734134   -0.26262838105441
H           0.33120718180679   -2.66330785220817    0.74124415164876
Cl         -0.19178283374383   -0.86044917897705   -0.67638115202966
C          -3.58695395189630   -0.15159431226323   -0.01609271240722
Cl         -2.89002092883859    1.19728403973809   -0.92189444903283
Cl         -4.46274199741459   -1.23071497005434   -1.10992814289175
H          -2.78441287601761   -0.71013567568899    0.47574386378379
Cl         -4.67906291558617    0.46255758904959    1.23100141431124
C           2.35925789326475    1.18337757698400    3.24840038788132
H           3.30662952831494    0.66762207341193    3.39849573509838
O           1.60052806102840    0.40578846502593    2.34546135154776
H           1.84757582941160    1.28371787899123    4.20958346136016
H           2.55576100918355    2.17591950733600    2.83784775690959
H           0.74387313540138    0.85688679832665    2.17781179254869
C          -1.60309920431935    2.34915363659380    2.59112327290847
H          -1.60234479837083    2.16390380669671    3.66883356038831
O          -0.91329871169447    1.32910592041614    1.89743590415834
H          -2.63420267532930    2.43056205188406    2.24197181716244
H          -1.08284581538820    3.28381208531789    2.38722735054907
H          -1.36134833258060    0.47310574392819    2.06078502086325
O           0.72498360504600   -2.14722878024143    2.69770594810481
H           1.41404940344935   -2.74124863643027    3.00117881026730
H           1.13937302024154   -1.26460540070887    2.60903546546539
O          -1.85063307410571   -1.18992395108800    2.39278300687107
H          -2.46680862036440   -1.53091159339491    3.04385324755691
H          -1.00491932428533   -1.64575737960394    2.53820605747394
