41
-96.897428932251
C           0.15542210152346   -2.63026748820014    0.64905784873036
Cl         -0.93448444556966   -3.13997265573484    1.94712006402231
Cl         -0.03405251628589   -0.90329028030602    0.34694583333533
H          -0.07745088072896   -3.16910840801271   -0.27545824755725
Cl          1.83300361466448   -2.98656912550927    1.09520361735481
C          -0.17365246435386    2.72878646245974    0.16782274438109
Cl         -0.03004961541092    2.15311505427766    1.83128509683189
Cl         -1.87854407563912    2.88661057466279   -0.27040484956277
H           0.29462211032194    2.00466649092721   -0.51009977251028
Cl          0.63471499793757    4.29243084309970   -0.01582464170998
C          -3.43543932664672   -0.42395830664363   -0.14014021763740
Cl         -5.07575872690671    0.04911369714052   -0.62789003134473
Cl         -3.08254607756544    0.15801919630742    1.49299466732207
H          -2.71756994523757    0.00360535806254   -0.85590258072655
Cl         -3.29452673161033   -2.19481160583943   -0.19918724707768
C           3.31483984879292    0.24845882645184    0.57040361336618
Cl          5.03419570740550   -0.17472566204294    0.43815238174075
Cl          2.76172152762033    0.04871813943320    2.23801992154153
H           2.73812469485449   -0.40948093545344   -0.09096680933450
Cl          3.07501901661793    1.92776058821479    0.05642325575090
C           1.38206214366919    1.93312766079550   -3.17977980040530
H           2.40656183313523    2.20325326537994   -2.91273874703123
O           0.82090889055976    1.05954277493169   -2.21921007159156
H           1.37457496047835    1.48405846047479   -4.17832779128628
H           0.76924510729328    2.83661014181526   -3.18955040754654
H           1.36845961354400    0.24297070144616   -2.15732538053159
C           3.35319654812352   -1.58364492757378   -2.71288113482139
H           4.05972689486243   -0.76431824680125   -2.58420279082239
O           2.19808456693213   -1.26516674890946   -1.96490723983964
H           3.81135824039180   -2.50625793766135   -2.34940012567669
H           3.11841912481648   -1.69263102073124   -3.77586939875823
H           1.54805801578333   -1.99803849369326   -2.06287796551014
O          -1.80399611905547    0.51035038510977   -2.52273578981393
H          -2.20886372249456    1.34869239038511   -2.77198518563924
H          -0.84798448503109    0.68635618978805   -2.40568506307630
O          -1.89934394537233   -2.15798295072130   -3.15552640199590
H          -2.57436705132204   -2.45129141199108   -2.52379138200508
H          -1.86651398169228   -1.18353737845878   -3.07626111726629
O           0.37508689146563   -3.24608585664146   -2.33998287544498
H          -0.45633758306673   -2.82709674196304   -2.67953173200640
H           0.56367534657484   -3.97963971618379   -2.92912678613191
