38
-91.810745990570
C          -0.52006105045196   -2.69938176408619    0.35296536307501
Cl         -0.68418755393084   -2.14804632276177    2.02256817411786
Cl          0.21901051757679   -4.30593518637223    0.30851539863491
H           0.11590478117265   -2.00216334168976   -0.20381558033446
Cl         -2.10794878759622   -2.75068150055639   -0.42092151599775
C          -3.38223612241453    0.53363904962264   -0.29500291144136
Cl         -3.23935061636144    0.27864339423536    1.44693065367977
Cl         -4.81726790135751   -0.29476757430167   -0.91789586842133
H          -2.49955873673221    0.12989788908858   -0.80391806787129
Cl         -3.48766627937857    2.26145425633657   -0.65014765937668
C          -0.07630712785344    2.53407202318174    0.51974802350754
Cl         -1.13309001748315    3.20875203015378    1.76560609539946
Cl          1.53656911189745    3.25122188522125    0.63114603370719
H          -0.49203851632193    2.73925456217072   -0.47273133940710
Cl          0.03832443946059    0.78111206480638    0.71330102704436
C           3.43933190689565    0.04772913094655    0.44073455246263
Cl          4.08885165899944    1.07866456814404    1.72226645155928
Cl          4.75171195307585   -0.52576454093987   -0.59737937011945
H           2.74052473596299    0.62840845675048   -0.17081090311490
Cl          2.58983235834454   -1.33462534692285    1.14374864242520
C           2.90768314927120    1.82072045267363   -2.91328223373444
H           3.09299766650945    2.87706863311510   -2.70557217741883
O           1.92737711334489    1.30036509931875   -2.03880069153669
H           3.82361910443746    1.25763285082518   -2.74117901302017
H           2.60605545074534    1.70729488341935   -3.95805834360290
H           1.08616404205311    1.76978821173981   -2.19839753924265
C           1.79869691213778   -2.20197559254440   -2.59494726657627
H           1.94311176680846   -1.92930807455203   -3.64390433353567
O           0.98472927195155   -1.25667557952018   -1.93028005351607
H           2.77254893774872   -2.28883818592987   -2.10906043191011
H           1.28658273885191   -3.16143897528659   -2.54029087955253
H           1.42762569468756   -0.38123839099529   -1.95863985863438
O          -0.61870945046384    2.27763589636337   -2.50709257838127
H          -1.15496472427520    2.85705369042483   -3.05147456483869
H          -1.02446663707754    1.39349308658432   -2.56297216910628
O          -1.48368139512613   -0.31651047827528   -2.57204919910455
H          -0.63962751922002   -0.76615591179156   -2.36686397918095
H          -2.05570995626394   -0.97069811129726   -2.97772877534792
