47
-103.210746390071
C           0.36199653486963    2.82437863595158    0.14807830559821
Cl          0.11944286997719    2.59875153781280   -1.58590382668760
Cl          2.08893949881127    2.79159133956847    0.52394137266375
H          -0.12666905637098    2.01082276767304    0.69686321726771
Cl         -0.33685519042967    4.36400761856840    0.66817105818945
C          -3.30459481296538    0.35125423038367   -0.70530160541745
Cl         -5.04534293505821    0.03181675765322   -0.72676705371099
Cl         -2.66683538901144    0.34943670474723   -2.35250968515245
H          -2.80912606186806   -0.42642551491788   -0.11425073605033
Cl         -2.99214344747357    1.91424198978808    0.06079515251565
C           3.52779398627274   -0.21889841405957   -0.41650353843583
Cl          2.98043794716696    0.37773290749386   -1.98659450239713
Cl          3.83755296039950   -1.95540348169544   -0.50656388868464
H           2.74948205072462   -0.05026568024811    0.33731039473623
Cl          5.00067414239484    0.62618216554547    0.08181788406716
C           0.04917106296171   -2.24673697595384   -0.94533966080914
Cl          0.88212038440415   -2.51720743437769   -2.48257794175196
Cl          0.02967161767009   -0.52091619640183   -0.56762179564528
H           0.58282860559211   -2.76331973454033   -0.13730093395845
Cl         -1.60821496044255   -2.85390548422469   -1.03809523957275
C          -3.59289411578720   -1.17516944121758    2.55097501892507
H          -4.25968032993341   -1.98537500930397    2.24545069547417
O          -2.38460277809706   -1.21590495472258    1.82045409200204
H          -3.40773880451730   -1.25152555988152    3.62538108272853
H          -4.07435302550481   -0.22208877358362    2.33530355392738
H          -1.90205267633565   -2.03697724862046    2.07612670776555
C          -1.49195114141343   -4.65725198165056    2.29344634719102
H          -1.50364920302694   -4.76313352554332    1.20515328239381
O          -1.01278060094865   -3.38754216171245    2.68005256835411
H          -0.88357220713466   -5.45536158671109    2.72555669916562
H          -2.50955007223267   -4.74531029083269    2.67194069500517
H          -0.08954090646182   -3.29991004442559    2.37575955375940
C          -1.07819584310276    1.56394314849488    3.35641652747913
H          -2.03398043504555    2.04259177043134    3.13140907245551
O          -0.62593226426845    0.79995207361346    2.25812499139283
H          -1.18641605689030    0.94390408688758    4.25064325922727
H          -0.33236664333777    2.33559186435206    3.54343247326722
H          -1.28904490320950    0.09595196255768    2.06763934881328
C           2.64087861170331    0.17284156316784    3.21508163352064
H           2.75808054561658    1.25560713516823    3.13438300480509
O           1.84727327122798   -0.32800416871692    2.15884824702394
H           2.20415854612450   -0.07330632343515    4.18664120244104
H           3.62066564626924   -0.29576974526091    3.13296944665180
H           0.96185885408093    0.09716364697705    2.20180497953437
O           1.50824460044389   -2.97470081679238    1.64323150221317
H           2.37295595373498   -3.37575682747894    1.53117897442730
H           1.66868185020664   -2.03535165739279    1.86887483573933
