50
-106.364933439127
C          -4.18329254248557    1.02913240109702    1.09239577854649
Cl         -4.67767737499407    2.72511684379915    1.25975522632936
Cl         -3.56790317163531    0.43122673446548    2.63014432517252
H          -3.38796868854421    0.96755484146176    0.33909597009875
Cl         -5.55897626268733    0.05026583258471    0.57168613436730
C           0.19735386824618   -2.12649843426882   -2.34053492902093
Cl          0.68976266687482   -0.58056193149659   -1.64857649477577
Cl          1.36575429770317   -2.64123418279102   -3.56707897020641
H          -0.79004254089669   -1.99395018509724   -2.79132951982212
Cl          0.07834489462819   -3.34519181216646   -1.06947361120569
C           2.62384973382145   -1.92921348505970    1.01436544321400
Cl          3.39950740825690   -2.28223787242818   -0.53180115910247
Cl          3.03510961808746   -3.17936492851759    2.19863958354462
H           1.53569044020904   -1.90612944770816    0.88711489726493
Cl          3.14521873789762   -0.34596148055864    1.60744170705808
C           2.60103006165830    2.17326823309620   -0.66527416938975
Cl          3.52335669167925    2.99741401348939    0.59958800653967
Cl          1.90348528291589    3.36240733500823   -1.77139525434318
H           1.78227973785636    1.61189865621821   -0.19936047217019
Cl          3.64629760142163    1.06554786834069   -1.55645283831746
C          -3.81528617459918   -0.73544876266856   -2.90796708773540
H          -4.56706212254831   -0.32225045255769   -2.23070699961127
O          -2.57017127550411   -0.89150698848710   -2.25856866007871
H          -3.72309963708558   -0.08536496585994   -3.78171484719361
H          -4.13361144649285   -1.72462549289352   -3.23495805938433
H          -2.28017784514783   -0.01229824743020   -1.92873381035281
C          -3.36784065574032   -2.99658098383694    0.51375565591806
H          -2.77652322686623   -3.80094280486063    0.06648914513078
O          -2.73618995659625   -1.74616227119870    0.34989256006914
H          -3.45990581106285   -3.17210335612911    1.58488167564786
H          -4.36644790961534   -2.99333297319157    0.06982629838741
H          -2.67403707071300   -1.54771906222894   -0.60778428563355
C          -0.02124047206192    2.05334726929227    1.93991090122764
H          -0.97619158287148    1.92708805409093    2.45588573123608
O           0.06356293779108    1.20562756092332    0.81085106393120
H           0.79558055487164    1.85404412815498    2.63715576975302
H           0.06210199958359    3.07859638175295    1.58154804868049
H          -0.02099058539448    0.27164474360233    1.11536317813926
C          -0.44854173018475   -1.67183824412560    2.93403390844235
H          -1.27608505460156   -1.13291519852431    3.40120777455736
O          -0.34577678025476   -1.35792318817514    1.56024819843253
H          -0.59219468157872   -2.74577259169989    3.07731413561398
H           0.48716808038230   -1.37474736898838    3.40618643995792
H          -1.20926330237837   -1.55476200343060    1.12797613260123
C          -1.84548518606872    2.66040352835643   -1.69091786915271
H          -1.82800439656239    3.50475279813520   -0.99841507213093
O          -1.95202553496979    1.43617147320698   -0.99292869154925
H          -0.94302207384476    2.68388999919567   -2.30595213104186
H          -2.72309189843893    2.74588599048306   -2.33073277800349
H          -1.17589523192293    1.35353526657718   -0.39186989306090
