50
-106.363696984214
C          -4.06402595263753    1.46326819781684   -1.10130652395819
Cl         -4.46834775115663    3.15664758257516   -1.45832312028798
Cl         -3.51922168727565    0.65036802779118   -2.57234182325165
H          -3.25291837295674    1.44504371271977   -0.35424683087889
Cl         -5.48390528528522    0.63247528568599   -0.44410155655225
C          -0.16542646422601   -2.12410324611415    2.36824966847074
Cl          0.78060734824546   -2.59289284355229    3.79047264157242
Cl         -0.14245139196519   -3.42061016001836    1.16593206708412
H          -1.19998590516856   -1.92213731923175    2.66186178037281
Cl          0.49792511964576   -0.64706787333668    1.66895028995979
C           2.46725623274155   -1.92851541357910   -0.97689580279353
Cl          3.45120040673660   -1.72539879932889    0.48172761396140
Cl          2.73380423262244   -3.52927990896324   -1.69333959647904
H           1.40258262995503   -1.82276346779849   -0.72462190772846
Cl          2.87960463770599   -0.67362157861240   -2.15169771588976
C           2.64593458005486    2.10884897373542    0.66863585001630
Cl          2.84462214906294    1.55820696746369    2.33989710219419
Cl          4.15106384059610    1.87165273557302   -0.23056817451751
H           1.84658355799031    1.52719752140229    0.18448281929386
Cl          2.16683480023358    3.81197816064751    0.63903305814729
C          -3.86629423199976   -0.19805250126823    2.98445830361431
H          -4.59013618204528    0.38459155879340    2.40045796333227
O          -2.72897720371836   -0.52557849464949    2.20921652458535
H          -3.58733196553848    0.36836796849718    3.88374710155211
H          -4.32465167203161   -1.14450370659562    3.29137367209365
H          -2.32241872750615    0.30158240225380    1.85949819182987
C          -3.68910220005441   -2.81846530129867   -0.32203726567971
H          -3.15819343218170   -3.56375818397014    0.28207743655393
O          -3.01772313082225   -1.57529990939625   -0.30209010984898
H          -3.71814433477854   -3.15514575967837   -1.36023389834187
H          -4.71659592460395   -2.71523038106830    0.04453877721183
H          -2.97217693053159   -1.25659090112423    0.62414399301045
C           0.16357876382262    1.88968657557780   -2.10627306828659
H          -0.79459026053494    1.78134638602860   -2.63929600447595
O           0.17942191158078    1.11917030965012   -0.91525308072981
H           0.98105445312521    1.58020753737193   -2.76833740446786
H           0.30723566184510    2.94083720570457   -1.82070985165604
H          -0.01190743983251    0.18085635680474   -1.15211197502291
C          -0.67136587913078   -1.81108352087769   -2.79452573632414
H          -1.46213627856590   -1.24428436409102   -3.29269190450504
O          -0.54328447966710   -1.42431619841235   -1.44165231736093
H          -0.89027886137333   -2.87868749530006   -2.87192404387020
H           0.28012589154435   -1.60610969493426   -3.28358478244036
H          -1.42586793922767   -1.51462055787726   -1.01089046429974
C          -1.19113014874943    2.70824032780242    1.74269251206670
H          -0.88608798465834    3.55877649281528    1.12705907797108
O          -1.71394593378435    1.66271010426620    0.94099157155014
H          -0.32892368318401    2.35903751308137    2.31826409646030
H          -1.98217255750691    3.02409148488403    2.42633612251953
H          -1.02055217066609    1.42798841221354    0.27925529636129
