50
-106.363726983677
C          -2.67599390539366    2.33410390168735    1.02468781116999
Cl         -3.68815189251215    1.22071802894048    1.94890892387941
Cl         -3.55075218868822    2.92983703101336   -0.39346050072443
H          -1.77878235631802    1.80555181132711    0.68698186797378
Cl         -2.18518250553344    3.69535234577067    2.04371222326105
C          -2.02319265085059   -0.21590083987695   -1.94512433422709
Cl         -1.31099650822418   -1.79187210907345   -2.30369191027919
Cl         -2.24901152493563    0.70388988893844   -3.44247284166028
H          -1.34183785480387    0.33907142482540   -1.29259972620426
Cl         -3.57510436040717   -0.43197600202394   -1.12439530468475
C          -0.96557551944053   -2.62043481451108    1.13233130625013
Cl         -1.00217924927251   -0.86978372164601    1.31807193398735
Cl         -0.40085175947348   -3.36500355696734    2.63490804673648
H          -0.25933156807804   -2.85725898187183    0.32806209365357
Cl         -2.57955758586079   -3.21893687630979    0.72280321158510
C           4.43736694624211    0.60597845783935   -0.42923205355580
Cl          3.94611427523395    2.15134124906130   -1.11476412795554
Cl          5.00513735865185   -0.47261907175795   -1.70716040097893
H           3.57866374958975    0.14374563530951    0.07081179926729
Cl          5.72491757241992    0.85796782135073    0.76200451433622
C           0.93221637514078    1.74164567969072    2.97767780613530
H           0.09762456207064    1.05852914366909    3.15696026701431
O           1.52777026097810    1.50330390303711    1.71984312898056
H           1.66348970286064    1.63593256291134    3.78254953478491
H           0.56122656908323    2.76538146992598    2.96924306053023
H           1.86910171112400    0.58754512802208    1.70255928443403
C           0.16277230555092    2.98991746210096   -1.06263355192251
H           1.20730548799907    3.21492243126987   -1.28771872351710
O           0.03510884140650    1.70042179268880   -0.48856744222990
H          -0.41692169973013    2.99146756610030   -1.98487906001311
H          -0.23072471070279    3.75655088330484   -0.39227511222150
H           0.57108380857929    1.67799835852533    0.34425019074437
C           1.70379166838084    0.16424631333869   -3.20249674342100
H           2.10346651666642    1.16364419668048   -3.38991606598110
O           1.64653017948414   -0.10662409828770   -1.81845807518992
H           2.37372222151774   -0.57163640673084   -3.64474462225983
H           0.71798002721175    0.07788689923093   -3.66724472389583
H           1.06650216622834    0.55441664073807   -1.38779622616255
C           3.16988769644317   -1.80424430413652    2.43005374334057
H           3.65174349080371   -1.10490139687300    3.11193838054023
O           2.55071330127340   -1.03999796412547    1.41802059524557
H           2.43504689658310   -2.39693884137723    2.98118428752456
H           3.92890825743976   -2.47021974050176    2.01169286768494
H           2.13671713472325   -1.64679587008114    0.76650309044795
C           2.34513444468281   -3.44620231811645   -1.26823929142628
H           1.92268685513235   -3.75795675909819   -2.22664597852077
O           1.49901408397449   -2.51446558353264   -0.62581016055220
H           3.33994176726087   -3.02572245451640   -1.43415448897915
H           2.42448844489775   -4.31488805907469   -0.61542691498815
H           1.46541955632493   -1.69933527299233   -1.17654212093029
