23
-70.238545225555
C          -0.38379079096784   -2.50768103267925   -1.10908130726541
Cl         -1.98754225583645   -3.19985649597032   -1.39577368920196
Cl          0.12651256345369   -2.82384011493780    0.55284878557245
H           0.33572976118196   -2.96731405530987   -1.79020888853381
Cl         -0.40924457979591   -0.76600167491502   -1.41703938918753
C          -3.07709971615314    0.54659963204193    0.50989006633931
Cl         -4.83135425600021    0.70509718502925    0.32449177464010
Cl         -2.68531026199985   -1.03721042177893    1.19475272253720
H          -2.59597027914434    0.63219415261545   -0.46801558504970
Cl         -2.45286132857541    1.82711534640273    1.55835029604547
C           0.58681459469098    2.37475702949479   -0.42749713989270
Cl         -0.87309102216594    2.52838995471545   -1.41247978686377
Cl          0.97309164094791    3.93226962756419    0.31722269528423
H           0.40989584540369    1.63466832027382    0.36256546106374
Cl          1.93025249040857    1.82674116721259   -1.43968595967091
C           3.00106294242431   -0.95426228356524    0.61130314519616
Cl          4.28981054000630    0.25143532988400    0.72539137630159
Cl          3.31472251554482   -2.29349425719634    1.72580455235447
H           2.04747157841840   -0.48719020349421    0.88324555155805
Cl          2.89658714028403   -1.56425278665269   -1.04171928598692
O           0.37315477825475    0.23654834120425    1.79239998537155
H           0.36644865247979    0.55195023682225    2.69874514552055
H          -0.35092955191347   -0.39915890088028    1.72090131572128
