23
-70.238763717157
C           0.50239806221052   -2.48607393405486   -1.08998748657028
Cl          0.04418886295622   -2.87407082816941    0.57084000229960
Cl          2.13437267564468   -3.07815965406324   -1.42684979226828
H          -0.20500939331278   -2.96682655513750   -1.76821843359315
Cl          0.42745637709492   -0.74136005915737   -1.35061364197212
C          -2.96808289389367   -1.07634875031384    0.59527243195175
Cl         -4.29222576044505    0.09190108334526    0.69097672897146
Cl         -2.82350679536717   -1.68324213768880   -1.05616234011754
H          -2.03279334590271   -0.58192183058875    0.88031418362284
Cl         -3.25927968330214   -2.42473418149737    1.70300881406925
C           3.07275751714476    0.72792892770559    0.54207225217986
Cl          4.81791745096924    0.91891492134373    0.31705362479211
Cl          2.43725675760306    2.02442657076014    1.56227215243186
H           2.57353305063552    0.77441498307898   -0.42921734827289
Cl          2.73028550957120   -0.84279169137071    1.27751561294930
C          -0.69253086675968    2.31611307421484   -0.46141675049949
Cl         -1.12632435018309    3.88404713064593    0.23035719866268
Cl          0.75994891426912    2.48144371889791   -1.45594805209908
H          -0.48899734907731    1.60833978734580    0.35090590940625
Cl         -2.01910797363017    1.69095186734949   -1.44848968746277
O          -0.38492966606880    0.21659551097397    1.79444212832570
H           0.34833719864245   -0.40719769493332    1.73647309913888
H          -0.38483706788234    0.56431612648650    2.68938146055582
