26
-75.323427645457
C           0.13575963262582   -1.27501983279885    1.52812826927431
Cl         -0.19864807908172   -2.98519279938374    1.24148342647170
Cl         -1.31853973377774   -0.47393828863283    2.14922972792581
H           0.41425624715819   -0.81151702680893    0.57951873986125
Cl          1.46916573147644   -1.10398103736975    2.67456391437071
C           2.99650432970035   -0.55332375353091   -1.14828981349900
Cl          2.80996661091713   -2.19747518499522   -0.51727633795509
Cl          3.28914268972195    0.57039137953872    0.19364724038557
H           2.06180307350024   -0.26732172249991   -1.64400989158121
Cl          4.33045300866876   -0.49503801435437   -2.30521040333218
C           0.22009329113652    2.45251151990125    0.26498740217050
Cl          1.00715922637560    3.83030939498877   -0.51534193010208
Cl          0.84224043753710    2.24165823359012    1.90646478958871
H           0.42669820832411    1.55039311085840   -0.31705610483819
Cl         -1.53444513767944    2.69545435948664    0.31092729411503
C          -3.05181179899409   -0.29441525908316   -0.79226743789140
Cl         -4.26627983816185    0.54261994992420    0.18262627103682
Cl         -3.15078557400357   -2.03732984096672   -0.51311224423867
H          -2.05623016283999    0.05084591998354   -0.50023981029355
Cl         -3.28683277050777    0.05640398569440   -2.51050143259801
O          -0.00538377323649   -0.04971536131158   -1.60986004291764
H          -0.37537986205217    0.40216853398611   -2.37264828571567
H          -0.10543844751929   -1.00900530731591   -1.80618016583323
O          -0.24716939082063   -2.68832287604349   -2.00378321554320
H          -1.08992766491401   -2.98650128575299   -1.64546992094099
H           0.44391108887221   -3.16551731465417   -1.53466368723507
