29
-80.409842453756
C           0.41371465339681   -2.53402698133007    0.26024467413088
Cl          0.65660563316257   -3.97910193421360   -0.73015728031428
Cl         -0.98082496974957   -2.75207689046541    1.32431631054892
H           0.22776625705610   -1.68077403042549   -0.39872745366595
Cl          1.86036754132264   -2.20637499329712    1.22441480812789
C           3.04810330224388    0.37402993997953   -0.88532109380470
Cl          3.39513666501609    1.56546902389575   -2.14374368752566
Cl          4.25026291978138   -0.92420562850091   -0.93932881016198
H           2.05236307420521   -0.04363469369873   -1.06772522727337
Cl          3.05717697587530    1.15592207404135    0.70064843743836
C          -2.86645584496124   -0.37329578310691   -0.59977226726966
Cl         -3.11251740156580   -1.96570147942724   -1.34080373442743
Cl         -3.66585335710354    0.85917019340935   -1.57596336187411
H          -1.79258576168880   -0.15639572490514   -0.58422585331777
Cl         -3.51057383909427   -0.34764226764654    1.04451853269565
C          -0.19139464883377    2.19078558021922    1.34514127922055
Cl         -0.19737313007065    0.45928233979428    1.71093111867040
Cl         -1.85446503597910    2.78948723378354    1.30255659190725
H           0.25753240856942    2.34695201700544    0.35715864197185
Cl          0.73808978504629    3.07039931552318    2.56647631245742
O          -2.09259787042170    3.74662065920512   -1.86605768497358
H          -2.29950991579032    4.03802085237231   -0.97267547992457
H          -2.73058537684275    3.05716011638200   -2.08032206676471
O           0.30004724101157    2.56295293853604   -1.65119477279278
H          -0.53470079161056    3.05702952804040   -1.81510619720075
H           0.99019788969191    2.98246999319843   -2.16966798779965
O           0.03188849347747   -0.10835035844176   -1.69600957702981
H           0.11042280535577    0.86973129564554   -1.70440724403286
H          -0.11702511124027   -0.37483132963049   -2.60581131640280
