29
-80.410446875054
C           0.13282870778904    2.53696196184595   -0.43523874865258
Cl         -1.34990759017746    3.48214281860489   -0.26719684670632
Cl          0.90577333411397    2.86925145515974   -1.98947016554868
H          -0.11389778452199    1.47394890321709   -0.38121571936521
Cl          1.24280651825012    2.92180116403651    0.88813627054303
C           3.18930252272853   -0.81118609674951    0.73200990601093
Cl          4.79412001329840   -1.49941115179160    0.42871688299975
Cl          3.23318860194030    0.21568416756501    2.17284471238345
H           2.47635730319168   -1.62358797040701    0.90506639643316
Cl          2.66720093987812    0.14097013765189   -0.66454481035758
C          -2.98892100936597    0.20905800554763    0.94749613372760
Cl         -3.90521015356275    1.45223857410119    1.80603588792038
Cl         -3.68769900033227   -1.38229503576614    1.26220695099455
H          -1.94650105084077    0.20438132365264    1.29800370857345
Cl         -3.00316912305131    0.53086043475995   -0.79530461605914
C          -0.24673373846870   -1.63852345108479   -1.37255813274168
Cl         -0.08944599519742   -0.41008950009043   -2.63721030224036
Cl         -1.76194238504334   -2.52992085616841   -1.58506157232225
H          -0.25860414816544   -1.14258829668352   -0.39545011120509
Cl          1.11660853021910   -2.76406601242939   -1.42684028410553
O          -1.33815078817280   -3.79102072148399    1.38569078591920
H          -1.36849843467494   -4.09337161092570    0.47358814710062
H          -2.09987084978669   -3.21294001049769    1.50678821152642
O           0.91910657712709   -2.50501728410998    2.09497345129989
H           0.15624505824201   -3.06376318582193    1.83088934308838
H           1.14684655285622   -2.77074095050633    2.98823005596818
O          -0.03503665044953   -0.07457051720604    1.41151662313617
H           0.29510986934225   -0.92764972836665    1.75942003318659
H           0.53290227537649    0.59905878598147    1.79760814897431
