32
-85.497767840898
C           3.54113523165092   -0.16402119701300    0.23447737046587
Cl          3.31777376302315   -0.13421460754004   -1.51691230191979
Cl          3.73229481831615   -1.82818782133386    0.79154001961783
H           2.66346841030299    0.26691055396327    0.72898211579895
Cl          4.96898604975737    0.78124297184934    0.68462383445468
C          -3.44869975119225   -0.41641323108330    0.07109095241665
Cl         -4.88188487776226   -1.32791781185536    0.56941724402480
Cl         -3.22482222318012   -0.54520439754784   -1.67594011372676
H          -2.57646044256732   -0.82829492563844    0.58800756175650
Cl         -3.63464623766176    1.28005371365371    0.52982147570820
C          -0.32185972080977    2.68586014064795   -0.23593295278354
Cl          1.43635717105899    2.58320947046656   -0.37633765422687
Cl         -0.79818951149524    4.34614471919431    0.15032837491143
H          -0.64849475541969    2.02821498621069    0.57851675874247
Cl         -1.07547078677486    2.17552867669736   -1.74864188595325
C           0.27197609668430   -2.37025149155089   -0.27894530506406
Cl         -1.29277530847032   -3.19679654990835   -0.34154358053824
Cl          1.36457267284628   -3.05249942815827   -1.48989381544555
H           0.70180113608341   -2.49455086216910    0.72210105685102
Cl          0.05006887322111   -0.64107722624662   -0.57045440482037
O          -1.63361260410467   -1.35442072512530    2.44652529458903
H          -2.21293890707225   -1.88238282054395    2.99809314352171
H          -0.73539819260085   -1.71002276781803    2.56180618203047
O          -0.98219322262301    1.28722464438652    2.44201152084563
H          -1.30623283904523    0.36546416017007    2.43901018992400
H          -1.68363549668151    1.82665208577405    2.81214861824733
O           1.02734865386902   -2.02197969174254    2.70449749312957
H           1.34069323943594   -1.09646043585043    2.65759233167304
H           1.77669255430965   -2.54683319461976    2.99185555907328
O           1.66093823291152    0.62414216624741    2.53909748975100
H           0.75238278470707    0.97251105619240    2.48040611090807
H           2.13400925327965    1.19054435734123    3.15168700959578
