25
-81.450615072655
C           2.58216938490095    1.56472422377156    0.21782638565547
Cl          4.15947808173344    1.10994794615268   -0.43542080631987
Cl          2.13744375743395    3.17774009671648   -0.34688882739032
H           1.83017756391496    0.85513854252396   -0.13338104149026
Cl          2.61180236090898    1.53449845886233    1.98364116052455
C          -3.12939095481888   -0.84299469900234    0.11155997590219
Cl         -2.77755752093630   -2.57528985343250    0.11833194650094
Cl         -3.19546332137504   -0.22775329431875    1.76557349313889
H          -2.33232539512812   -0.32603828850462   -0.42626276203781
Cl         -4.66607025971363   -0.52763321659403   -0.70455729780806
C           1.37974913517189   -1.40200038778290   -2.56297326238387
Cl         -0.31267838878298   -1.66909177413831   -2.13311632569330
Cl          2.42110514705048   -1.77489725911312   -1.18733702430539
H           1.64003837982204   -2.06053368951111   -3.39380397221593
Cl          1.62124052677721    0.28055679578036   -3.06368198249418
C           0.74703670331249   -2.20393838202633    1.88408751544507
Cl          0.09471553797266   -0.75079203756732    1.13351662898797
Cl          2.48879794840873   -2.01954753509205    2.14120160959877
H           0.25579077799033   -2.34195360278920    2.84879549847227
Cl          0.41918590943637   -3.61094507534093    0.86673551060887
C          -1.33112331478618    2.75220268544379   -0.04298455675895
Cl         -3.10062949530266    2.76899325615712   -0.08304574003231
Cl         -0.72767285877212    1.53406738114657   -1.16872968445012
H          -0.95211982616622    3.72608023414870   -0.35826198810311
Cl         -0.75227270833293    2.40432696702304    1.58945810806612
