37
-99.857320308295
C          -2.05459474653399   -1.85770153668339   -0.06996198930096
Cl         -3.68290203226965   -2.16844988552113   -0.67651174317975
Cl         -2.08769236142131   -1.65773590212074    1.68899175534009
H          -1.66427956172829   -0.93336456416774   -0.51115450291691
Cl         -0.97196390378125   -3.19496594996309   -0.50097379511439
C           0.93198585958259   -1.02363792970159   -2.48224149378621
Cl         -0.66265294312703   -0.64654980983016   -3.18956274973457
Cl          1.46808993513167   -2.64107855532674   -3.00659064201902
H           0.83494024026878   -1.04981360122076   -1.38239081772329
Cl          2.13684552435279    0.22839833248578   -2.90112845546640
C           2.72233186517337    1.95588122363998    0.23692617650106
Cl          4.25295775130452    1.15070178420940    0.61657635680198
Cl          2.17664744261024    2.88586773894119    1.64266533373344
H           1.94825928829184    1.20992202031109   -0.00437592574662
Cl          2.94194902123538    3.04874469905494   -1.13628240530706
C          -3.37871900204021    1.66677227244578    1.14929739174019
Cl         -3.18965646108054    1.30389074217661   -0.57662438945176
Cl         -3.63463675309297    3.41418084819103    1.36227555530281
H          -2.46499544168402    1.37851974510425    1.68274069273700
Cl         -4.75560175603687    0.76091348910377    1.81108636555506
C           1.53055968499065   -1.79230469876001    1.60321191991083
Cl          2.05853162492507   -0.64078755559466    2.83479383669496
Cl          2.74527479166598   -1.89153855644331    0.31167970181630
H           0.59058553642280   -1.43198350945521    1.17372158484982
Cl          1.27508390295182   -3.39088547101303    2.32495981105497
C          -0.57359871167747    3.82895477459638   -1.14321741442287
H          -1.45533012229123    3.71007592574703   -0.51296696447358
O          -0.27160734635797    2.54971330632086   -1.67066863200316
H           0.25342265167458    4.21578998878746   -0.53539043796184
H          -0.80047461253226    4.53907015017784   -1.94400259613319
H           0.52017515049816    2.60924541018931   -2.22541075371847
O           0.02807612420634    0.42318964071870    0.02897819727394
H          -0.24275184930890    0.75882823517634    0.90221676795935
H          -0.22605312770250    1.12558309374499   -0.60096721458984
O          -0.55200760479274    1.40200840317878    2.55120641618897
H          -0.23066510766633    0.74185023802413    3.17688104143958
H           0.07414588168256    2.13105255562144    2.59031486254533
