31
-89.689099135478
C           2.28649050789335   -1.91217423564707    0.73514473324130
Cl          2.92381480107031   -2.37138187599037   -0.84956393496895
Cl          3.60271376618650   -1.38879777598255    1.79182087199624
H           1.57858581094660   -1.08599661404589    0.60853885211214
Cl          1.43299730946649   -3.27843365704816    1.46838700533521
C           2.87789144365135    2.51768546051966    0.52320730928505
Cl          3.18572744616293    1.14521669718691   -0.54805069170387
Cl          3.13427570885890    2.04852168697635    2.21060500999110
H           3.56707295606194    3.32581066406880    0.27164002163047
Cl          1.21942160194154    3.10909879241343    0.30329610929229
C           0.05187345727912    1.09653983034348   -2.92720622333087
Cl         -1.09725836982236    1.73784124114919   -1.75144193321015
Cl          0.78104473961702   -0.39493591596366   -2.32053680598678
H          -0.48230476173764    0.87514944138098   -3.85281141873111
Cl          1.30721723467757    2.29527326553867   -3.26090806744164
C          -3.10270080862893    1.17290485253531    0.86350775933794
Cl         -2.22384644164605    2.67351513942609    1.19789735235786
Cl         -4.24005713307064    1.42554484783180   -0.46298767252191
H          -2.37800779878147    0.40922607198824    0.57236564217819
Cl         -3.95562863139367    0.63125257736136    2.31401034474742
C          -1.48362783293169   -2.15152344035978   -0.55025353246205
Cl         -2.54246213576820   -1.35968294644785   -1.72870879358583
Cl         -0.55722389204783   -3.43081041744115   -1.33993416710692
H          -0.79615386666210   -1.40481125409372   -0.14181376292216
Cl         -2.45180052247715   -2.81172593835366    0.77688489016817
C          -0.11584124448926   -0.01895592362225    2.47131687684409
H          -0.39654690295507   -1.05111748343991    2.67147169498626
O          -0.06010593367801    0.12504020441677    1.06216381483945
H          -0.86198699226037    0.64835336677646    2.90617008993120
H           0.85748339186619    0.18323698080134    2.92495754157962
H           0.12303562302237    1.05293563007150    0.85507784571959
