37
-97.931765445218
C          -3.83500217015034    0.57111440513418    0.31659130413096
Cl         -3.60961425867476    1.95093920400710    1.39967170738889
Cl         -4.02674306180027   -0.90762280121055    1.26206430334667
H          -2.94896091800337    0.48772669361476   -0.32097952758427
Cl         -5.25362314699087    0.83587262188666   -0.70541973421346
C          -0.21594302989382    1.51241796485763    2.22030505168162
Cl          1.42558121229427    1.35187437083923    2.86220899250791
Cl         -0.27652544255892    2.82305091577068    1.04324827523253
H          -0.90466326717311    1.74720330857083    3.03404012520087
Cl         -0.72404566880811   -0.00298503845723    1.47000345228717
C           2.49618189929457   -1.52029532488906    0.79129030321046
Cl          1.90084069501357   -2.07076014867857    2.36160488740469
Cl          3.84169343448895   -0.38854008645915    1.00487888826322
H           1.69007716766741   -1.00648038680861    0.25939017551472
Cl          3.01410261106978   -2.90586660284186   -0.18121683153708
C           2.51912021859322    2.20947049792542   -1.05248465840659
Cl          3.88322185289034    1.80037559199236   -2.10407170747706
Cl          3.08312803759632    3.11119430799175    0.35823791542099
H           2.02956998322303    1.28421101578340   -0.73210117064425
Cl          1.33634668627378    3.16775255694309   -1.94991832059827
C          -0.99540940075772   -2.76967736436580   -0.73236763578606
Cl         -1.37154626127214   -3.16758962400228    0.94917528555023
Cl         -0.36558436005542   -4.19152117473748   -1.57549107133686
H          -0.24161248928832   -1.97526371660131   -0.75287809447921
Cl         -2.44287343478072   -2.16918371554467   -1.55299756908481
C          -2.05237803941211    1.52411874911315   -2.91680410052233
H          -2.92045394183170    2.18626944456244   -2.89748951891130
O          -1.50417146976624    1.37024815176480   -1.61952649924227
H          -1.30912639910966    1.92038988690573   -3.61234643139954
H          -2.36655137688195    0.53396801103602   -3.24194260827821
H          -1.19161202327150    2.22925373349219   -1.30504939088830
C           1.12235033934345   -0.61695365567733   -2.70668830193636
H           2.01947363934000   -1.22403818552972   -2.59837762413449
O           0.69371077059528   -0.26954571971180   -1.40302021629964
H           0.35839817662776   -1.19743228413647   -3.22965799727784
H           1.36131492723839    0.27419470796762   -3.29140556026273
H          -0.11630686849764    0.27772695114849   -1.48137075334730
