37
-97.930604989918
C          -0.79758311734860   -2.95257018507753    0.14882357727389
Cl         -2.22666046776388   -3.72894627791489    0.83409157969410
Cl          0.63858331121401   -3.93597561124881    0.47330355772630
H          -0.65376356841599   -1.96931776836753    0.60895770743159
Cl         -0.99894111157277   -2.74110706797384   -1.59596187647430
C           2.68659053586495    1.99129653381681    0.79052771412394
Cl          2.61389537460320    2.59095095472130    2.45198871975578
Cl          1.69718297904075    3.02124088698730   -0.25678933694885
H           2.27123512688701    0.97749177731447    0.76410112768292
Cl          4.35933082751392    1.98277115597582    0.22186544819624
C           2.50298716153653   -1.31050046555135   -1.16717253364326
Cl          2.66531807502180    0.15503184395575   -2.14013967417568
Cl          2.42216027635003   -2.72329636924286   -2.22207934496182
H           1.58735305764199   -1.23499309868114   -0.57452488382471
Cl          3.87323987977180   -1.44917365035598   -0.05716132257426
C          -1.17492075345869    1.81775349030584   -2.18200316827170
Cl         -2.45689802112877    1.17968518110923   -3.22058453888013
Cl         -1.81223250523209    3.09303938119197   -1.13855744031551
H          -0.38049011870164    2.23765417746306   -2.80160666422410
Cl         -0.49595654973548    0.52448663898243   -1.19490128150201
C          -3.22573995564118    0.29941604107067    1.09950656852576
Cl         -3.54650414251023   -0.64848287658820   -0.35801301966369
Cl         -4.66820204919656    1.21076379359301    1.56884510920612
H          -2.40524710337452    0.99946537804864    0.91222266638991
Cl         -2.73287905601463   -0.77153491799957    2.41768520635065
C          -1.00816235826703    2.46385724653129    3.06223367553461
H          -1.72638102643797    3.28510004973806    3.00752646504916
O          -0.71968989556488    1.95670233610521    1.77193217252571
H          -1.44508873299097    1.64479219727015    3.63003569902778
H          -0.09945294286451    2.80721946747608    3.56154819514178
H          -0.31347578321883    2.65542599563375    1.24200250394327
C           1.11637910684002   -0.98340501460245    2.59849170304782
H           1.65355613548830   -0.25525039087964    3.21122104509793
O           0.71098380523044   -0.41417971655692    1.36733656074698
H           0.25676028924654   -1.35954536119727    3.15922499189948
H           1.78103502007145   -1.81294458103180    2.36391103667993
H           0.13288876552368    0.34848753008782    1.56267285814569
