49
-114.419257406528
C           0.70770762333688   -0.09560013108746   -2.81538661763685
Cl          0.02495716607809    0.17626728452829   -4.42376873317796
Cl          0.15646514375689   -1.64711482005091   -2.17646955524787
H           0.37940375889255    0.71066921854077   -2.15044148393660
Cl          2.47281414181409   -0.07585534432778   -2.89644307588947
C           0.14792256960722    0.03242102000396    2.43279880012595
Cl          0.49293900702326   -1.61934533417104    2.94861561112437
Cl          0.20283006787573    0.13881192867075    0.66771102980576
H           0.90517984900305    0.71928913673220    2.82160484928039
Cl         -1.44716705841604    0.53601259886229    3.00241173102832
C          -1.98532476661063   -2.59594849623728    0.38577214682417
Cl         -0.59847477978168   -3.69284716413384    0.34734028859810
Cl         -3.14425696354561   -3.02923986544262   -0.87527459537209
H          -1.63026864463325   -1.58083275531453    0.19554253171802
Cl         -2.75995864882320   -2.64553074641153    1.97272371002278
C          -3.03285630264845    1.41228032852392   -0.18727744510646
Cl         -3.92145421149277    2.80446978837215   -0.81604649199211
Cl         -4.09343597929339    0.40673090781640    0.81202125535447
H          -2.19585572376169    1.77692170972678    0.41874145983698
Cl         -2.39724868769590    0.45571361543893   -1.53557701483619
C           3.56161559825894   -0.65422610195657    0.43800143260943
Cl          5.20094333901505   -0.83528538453904   -0.20177646221121
Cl          2.64718405495637   -2.15089974854580    0.21350009719926
H           3.06394548673287    0.16771624481470   -0.08824196790443
Cl          3.63171903622820   -0.23796710865431    2.15290381109852
C          -0.24149082558891    3.53657863425116   -2.47876669540719
H          -0.03287019780763    4.58300335031163   -2.23942635791181
O           0.23989841403360    2.67546781228984   -1.46662269350049
H           0.27437819142792    3.26976141042765   -3.39988596277049
H          -1.31660032596600    3.40892842901868   -2.62190976198359
H          -0.21302710212088    2.89253645402486   -0.62399228346130
C           3.79067242476494    2.83799168354348   -0.96734410316176
H           4.66718120943104    2.62156706920827   -0.35822716373383
O           2.69091977838729    2.19599444602003   -0.35545878845346
H           3.95501731500584    2.45410846123732   -1.97647579275171
H           3.64211482497768    3.92054965590588   -1.01284889741275
H           1.88419464493079    2.37015690357014   -0.88367680041060
C           2.54477639383058    3.39067175641767    2.98881408044639
H           3.44710794374814    2.82334760232099    3.22886078142502
O           1.68567270574387    2.64191116219173    2.15584557494092
H           2.82913111448681    4.33672215671009    2.51909046610001
H           1.99963259691634    3.59924409117411    3.90851621161659
H           2.15570943754728    2.44273964836826    1.31785279490409
C          -1.32521997419753    4.42162901620211    1.47715065483191
H          -1.64037593327693    4.33947798800815    2.51998548386451
O          -0.75617206720134    3.21015931686440    1.02526756024818
H          -0.61969404335124    5.25151064076869    1.38004197433181
H          -2.19789623221129    4.61872048018465    0.85624237389098
H           0.04955006023526    3.02403408469063    1.55112619354315
