49
-114.419703727000
C           1.68478016146935    2.91985942024931    0.36048275299022
Cl          1.27168419615411    4.63535738416858    0.23910507216929
Cl          1.74077580051120    2.43720578911068    2.05917665011438
H           0.91913724361910    2.33376466950655   -0.15957206664404
Cl          3.24855924886954    2.61370957481920   -0.40064349161491
C          -2.77755116856930   -2.67181133983172   -0.26201645898397
Cl         -1.53922031879150   -3.59044031927210    0.60056940169823
Cl         -4.10377096346163   -2.25104810205089    0.83334936753222
H          -2.33301570215689   -1.75153458085346   -0.65641263549697
Cl         -3.39783264007493   -3.62609037172356   -1.61905594600614
C           0.16010347444036   -0.79955255949729    2.08914715172494
Cl          0.94256228806585   -2.32452213269331    2.51355429686207
Cl         -1.52066435279102   -0.79716459721071    2.63345225368803
H           0.69316222359487    0.02699322812835    2.56415703020261
Cl          0.21709728051264   -0.55226794661380    0.34392188924183
C          -2.80103630875790    1.68219424989570    0.42086933778341
Cl         -1.48380985542005    2.36579170587291    1.38007964794608
Cl         -3.42009012321909    2.90444009100981   -0.69552089364756
H          -2.41325129849876    0.84027842661143   -0.15930298910257
Cl         -4.10162656625302    1.12051036957133    1.48197531513000
C           3.62522986360284   -1.13011921640608   -0.25820363652563
Cl          3.11907470716363   -2.82050411082867   -0.13868213558229
Cl          5.28230760897188   -1.03345058734820   -0.87056246190631
H           2.95705275897162   -0.60840687496888   -0.95522891139054
Cl          3.52814399692198   -0.36099794547602    1.32875650796998
C          -0.34015893509247    2.88205653746919   -2.80157777369262
H          -1.25098749076893    3.40825407833925   -2.51036479721260
O          -0.06469602590660    1.81601784556913   -1.91363803603559
H          -0.44484584179259    2.52308216512737   -3.82918269876770
H           0.50180338810207    3.57051021043651   -2.74676004301493
H          -0.80822293866211    1.17515138862274   -1.94193957155806
C           2.85540790077461    0.65077551294920   -3.52372154719701
H           3.56376285593940   -0.13724262189861   -3.77464746774930
O           1.98751086407188    0.13124636017292   -2.53618364344380
H           3.40379386462487    1.51627926911729   -3.14585428848016
H           2.30284844771051    0.93604948156454   -4.42276782385802
H           1.34078980356657    0.82610786437809   -2.28195005638377
C          -2.98636537089710   -0.06685827804812   -2.98574304845872
H          -3.48994815403922   -1.02261092141811   -3.14304159309739
O          -1.92158047905330   -0.20454029741177   -2.06152271927487
H          -2.62481687742403    0.30665919014452   -3.94631504233485
H          -3.69357534592835    0.64683150652533   -2.56591843631298
H          -1.25102756562664   -0.81541359843704   -2.46345867003933
C           0.26145367402046   -2.96624415806852   -2.64224080573764
H           1.10731716649703   -3.43942523964408   -3.14564219206585
O           0.01870454882639   -1.67713478616313   -3.16828064677540
H          -0.63422020967093   -3.55919652568419   -2.81994078259429
H           0.46249567870214   -2.92359845921707   -1.56945844999786
H           0.81327405270959   -1.12610449418098   -3.01021745337076
