34
-96.705269742770
C          -0.12728462315452   -0.86244719790242   -2.46718296019051
Cl          0.19870221441107   -0.02508185512205   -0.94506066698874
Cl         -1.29834153321594   -2.15939937680746   -2.17645411710592
H          -0.54749712917711   -0.13371699844478   -3.17006147593170
Cl          1.37119077089190   -1.51844040552028   -3.13412471228089
C          -3.47372025579952   -0.30529383479425    0.07967622885426
Cl         -2.29129190799016   -1.10151735421262    1.11769850532320
Cl         -4.48646366677846    0.77379097049711    1.05326230476510
H          -2.94586110249429    0.29775939459279   -0.67346989727310
Cl         -4.47231833560004   -1.51583980711355   -0.73769446509605
C           0.70752713214454   -2.86886165972330    0.94248238365139
Cl          0.78018632269269   -1.60486898536660    2.17891152219722
Cl          0.57959101866620   -4.45825961433769    1.70517602322400
H          -0.17754153231236   -2.69782094488500    0.32412659332794
Cl          2.14799709856130   -2.79520350107535   -0.07628757572438
C           3.24347136056035    0.53760215711231    0.58091469899947
Cl          4.48794094052879   -0.15926446000687    1.62610391453255
Cl          3.60306621824035    0.17217848541795   -1.11189799734131
H           2.27525037772360    0.09806782304850    0.83586904868839
Cl          3.15060826212572    2.28596492777268    0.81058151060382
C          -0.96086747048295    2.79984608726095    0.80744915849180
Cl         -0.13732674994918    1.55497383778637    1.75370641641645
Cl          0.21413445508178    4.00198799119102    0.25308379537624
H          -1.43255085207215    2.34292332416397   -0.07264506584254
Cl         -2.20276328573343    3.58644939327549    1.79290951224507
O          -2.37873690445890    1.89648169547799   -1.74638318915654
H          -3.10109599926102    2.47754248205947   -2.00521910079244
H          -1.74045010317876    1.89927110741971   -2.48865841410049
O          -0.54053534574148    1.89041211810766   -3.74075505905867
H          -0.59011300296719    2.42118918391012   -4.53923626404298
H           0.29158189561441    2.15827957225786   -3.28969038594667
O           1.68481480367998    2.62943369747922   -2.43413263430251
H           1.49916921295027    3.08736827219380   -1.60923684896211
H           2.32653666891417    1.94178166787042   -2.23382859161831
