37
-101.793278503166
C           1.67170954182602    2.18395545951959    1.55725203080312
Cl          0.03124072446913    2.82665696180626    1.69005212392172
Cl          2.67999067708924    2.80400329191525    2.87344337782619
H           1.62812092826340    1.09494820319819    1.62906032556615
Cl          2.37543316327508    2.61999272958880    0.00084045553619
C          -0.76257835931439   -2.08085659827889    1.89698154703232
Cl         -2.50572005538845   -2.37109605856470    1.84898984489084
Cl          0.02403895126702   -3.28176983765612    2.92998523794893
H          -0.35914244182052   -2.17105273048608    0.88221644379517
Cl         -0.45103921125660   -0.45573184458580    2.51251425435715
C           3.00589828064708   -1.32252505620108   -0.87194129254998
Cl          3.54676236320430   -2.95328773309925   -1.28508056840389
Cl          4.31850305868235   -0.16036644207569   -1.10352804531634
H           2.16835861058436   -1.06109528566317   -1.52665250405428
Cl          2.46056655035391   -1.29442285444443    0.80936144950770
C          -3.60283792704757    0.25059018337109   -0.38288437270569
Cl         -3.75187897978807    1.03590554054690   -1.95821505089682
Cl         -5.19731706587342   -0.27866992376331    0.17515390916777
H          -2.96231110393979   -0.63095518980209   -0.49921011220493
Cl         -2.88637459215880    1.36823193645553    0.78439698080705
C          -0.17113708349307    1.22811819369469   -2.14838607424527
Cl          1.42055264262991    1.30533140303695   -2.91609854438783
Cl         -0.73883413269829    2.85067872643953   -1.74733280062257
H          -0.87482308738655    0.73981102492318   -2.83144545286704
Cl         -0.07747187318668    0.24746527144986   -0.68277025551700
O          -2.48238035084569   -2.41972021599003   -1.44774362722337
H          -1.61369144971269   -2.76444728097696   -1.16859031203418
H          -3.13157437500602   -3.08464668616807   -1.21173521599249
O          -1.66767015711134   -1.02471349840659   -3.65143631299355
H          -2.38794876454044   -0.84936497011331   -4.25928165161015
H          -2.05793856535214   -1.49154045787876   -2.88814016910780
O           0.06296483945565   -3.20902035184283   -0.87261505856415
H           0.61548836361432   -3.97403694737322   -0.70154725199412
H           0.43880876902446   -2.76373730872693   -1.65867096585714
O           0.88180941080029   -1.92274070280350   -3.11564047137254
H           1.31253203706007   -2.28439142296445   -3.89208138021801
H           0.03463476760382   -1.54755719867262   -3.41267200915668
