39
-111.070714642515
C          -3.48963981075860    0.32483410271994    1.31292693009042
Cl         -3.93347305228704   -0.56779822724107   -0.14557418018367
Cl         -3.09629478686285    1.99661730547380    0.89762495107803
H          -2.60645394777815   -0.13443374583548    1.76422370273115
Cl         -4.82345414139903    0.28947860105944    2.47655129218453
C          -1.21672969501917   -3.30055117197723    0.44849000497660
Cl         -2.00147085360283   -3.22348106462129   -1.13864180718850
Cl         -2.42394457666145   -3.08292939127091    1.72076960183550
H          -0.47744150133148   -2.49561600742956    0.52647333719028
Cl         -0.39685297356224   -4.85696803228100    0.63829883267227
C           2.96494147162607    1.06772186467476    1.45222050454884
Cl          3.66272526016005    2.53077661642765    0.75444242886719
Cl          4.17163348603498   -0.22471946589195    1.49971691305036
H           2.11941068477561    0.74176441966387    0.84220193373933
Cl          2.37632558352804    1.39904175386245    3.08228895167633
C          -1.29189433660702    0.07565851326812   -2.31625122999460
Cl         -0.57404505717923    0.05241177150503   -0.70590691177947
Cl         -2.39193538426936    1.45032169571653   -2.46457157911060
H          -1.85874918879726   -0.84930912998181   -2.44353557288807
Cl         -0.03149804496462    0.16759185157670   -3.54712835072880
C          -0.07616002924202    3.49102380619216   -0.62739725766863
Cl          1.17402216157205    2.75148101259458   -1.63914894837167
Cl          0.25063804383162    3.14989047764789    1.07152206640237
H          -1.04795399535938    3.05855833012152   -0.87745941875645
Cl         -0.12852078396730    5.23898220381798   -0.88562346376227
C           2.38824524999674   -1.84586314054245   -1.00585672021586
Cl          3.82111577260350   -2.86198413301579   -0.79648659284370
Cl          2.83627733385598   -0.29706014377517   -1.72679211466278
H           1.93057060598124   -1.65766866732143   -0.02843110151364
Cl          1.20099810075168   -2.66808909474843   -2.02938480479842
C           1.38642874915243   -2.23316858574651    2.67186027425671
H           2.03118169083933   -2.98499171635745    2.21789649633907
O           0.89234905242891   -1.41209171630004    1.63144051925263
H           1.97058980039238   -1.65047495630486    3.39125126167472
H           0.56993561067106   -2.73815277138013    3.19606091280635
H           0.28772822214149   -0.75204252817923    2.03295209454172
O          -0.74991215128681    0.47657001049187    2.74584116386610
H          -0.45551974039903    0.67990982489096    3.64164248175234
H          -0.63413880151414    1.28515736017274    2.22972208094258
