42
-116.154102523102
C          -3.40473440656228   -2.11494271267020   -0.09841069438973
Cl         -2.31034499559177   -3.43459737600869    0.36348947163915
Cl         -4.58101229043335   -2.69938947083937   -1.30582147715744
H          -2.81758545103540   -1.30929722460459   -0.54488671916763
Cl         -4.26271522109378   -1.52700547966599    1.33928090577252
C           1.89523994295562    1.05564842772592   -2.20952752159147
Cl          3.44985770760628    1.77824645786449   -2.61126191295380
Cl          0.60423816838792    2.26073243982514   -2.35570005933482
H           1.91395914482266    0.70146939950253   -1.17448709381778
Cl          1.55702015418707   -0.30793495414300   -3.26567693391973
C           1.25812340720004   -2.79867686913504   -0.61625572782393
Cl          0.97607537969515   -4.00586322544920    0.64514693243308
Cl          2.97641621955457   -2.78964915206177   -1.07316080615149
H           0.97731627278746   -1.79854303989452   -0.24462714528919
Cl          0.27477160743092   -3.18691927683698   -2.03303047566672
C           0.58292590863109    2.81019673531934    1.06555225815490
Cl          0.41295798510156    2.75543999504327    2.83133510074557
Cl         -0.48220613062104    4.04933986923415    0.39258091421690
H           0.29752540931144    1.83063078384099    0.66053361904140
Cl          2.26623552379226    3.14695890752997    0.61563079873092
C          -3.59628124773616    2.09772879518503   -0.45865528670870
Cl         -2.58665752275678    2.68728520632597   -1.79968650817535
Cl         -4.75747338419861    0.91097816339740   -1.05834301006786
H          -4.13813442597196    2.94708214198858   -0.03605424475031
Cl         -2.58560034816130    1.38988228089453    0.80474671829242
C           2.99500284953150   -0.10892960063585    1.73369840945125
Cl          4.10167451765281    0.19819230101217    0.38531588098451
Cl          3.17960878607805   -1.78790089843108    2.28692720472530
H           1.96798651219032    0.03440336075800    1.38426481229874
Cl          3.32413450631083    1.01014396395357    3.06496638952500
C          -0.27885402548557   -1.12142999494844    3.67235814479886
H          -0.92708179394223   -1.44063205719965    4.49752079520508
O          -0.97569216253037   -1.15095642159690    2.44042085102371
H           0.61415011113929   -1.75811674901462    3.63678621329431
H           0.02278985168068   -0.08505061319669    3.83911369218713
H          -1.27611190386880   -2.05403577841095    2.26974203663090
O           0.20869027735719   -0.14829382622654    0.23880390511473
H          -0.26668192426303   -0.45354806251798    1.04275223723296
H          -0.45312251726540   -0.18283961003746   -0.47764935633599
O          -1.52569273421709   -0.39716713342478   -1.88513629417804
H          -1.09614789024314   -0.99598377902581   -2.50554803763920
H          -1.65642040584547    0.44189388688899   -2.34479738660629
