36
-105.985670078061
C           1.91548512126139   -0.95057263555738    2.06809296285364
Cl          3.14340201290008   -2.17179076527229    1.72885229641341
Cl          1.09404912270103   -0.49069048970409    0.57712029240197
H           2.39450517817901   -0.05920166498632    2.47805251025507
Cl          0.73449197093808   -1.56591805364292    3.22942191698924
C           3.12339750774478   -1.14171098462556   -2.34145275431776
Cl          1.81557706734074   -0.11319809385807   -2.92252099277402
Cl          4.05819047127753   -0.28654874918562   -1.10658033994107
H           3.77730565691963   -1.36843655182065   -3.18572967711936
Cl          2.46720016134521   -2.64935548683002   -1.69514964037785
C           2.07763568113416    2.72835632971345   -0.34702376028998
Cl          1.14473633909738    4.15002842774610    0.14213942536831
Cl          3.01051059256989    3.07869742302058   -1.80726125277366
H           1.38260264899504    1.90963743736127   -0.55543104250477
Cl          3.16148502593631    2.24065794782009    0.95898055131416
C          -1.18659572746540    1.79285898802442    1.73302687284611
Cl         -2.31318994812003    3.14008743305207    1.94440430891269
Cl          0.22703698011165    2.00909063420883    2.76904293873609
H          -0.86416159186840    1.74954411245674    0.68863740508946
Cl         -1.98633218748307    0.26654076405279    2.12802749155891
C          -1.24397576649512   -2.88062017513804    0.17033419148608
Cl         -2.61766013915618   -3.99538843757838    0.11904623944605
Cl          0.23724188613710   -3.75744757166647    0.55859492616112
H          -1.42556584859146   -2.12173378256777    0.93541016234238
Cl         -1.07453194037606   -2.06930884378821   -1.38776304565035
C          -3.63885888463024    0.29422732561849   -0.99142935590792
Cl         -3.84593168343575   -0.11081159837121   -2.70178559021007
Cl         -4.46671459616844    1.81084321493952   -0.61565944023768
H          -2.57049524422039    0.41880489046180   -0.78997715785970
Cl         -4.27231320075265   -1.01307469760399    0.01507261660627
C          -0.91921486850791    2.27553310039764   -2.28914349309690
H          -0.01972375805261    2.52854089904483   -2.85461142729156
O          -0.64294377991529    1.28760823077377   -1.31010149971518
H          -1.69651349918187    1.93903368390418   -2.97786680537479
H          -1.26939443936692    3.15641816080801   -1.75480895826925
H          -0.32975714812289    0.48969867414108   -1.75742526572802
