36
-107.915160967742
C           1.49103553806419    0.78009549053079   -2.32663656353759
Cl          2.86532767403671    1.82585439268601   -1.94877384278225
Cl          2.03622215418764   -0.88896906008084   -2.54067809808014
H           0.77973604815578    0.81178332671705   -1.49727823604002
Cl          0.69083626528623    1.34462130582966   -3.79493497571030
C           2.85367520712568    0.69053098915463    1.40284414863479
Cl          3.54891080249529    2.31239175521363    1.48545115302187
Cl          2.63163724018579    0.04597190759885    3.03114339585773
H           1.87839311895736    0.73719558699688    0.91181556531254
Cl          3.91066487496874   -0.39163691705872    0.47826018316887
C          -2.55532582615450    0.26645847035051   -2.74203423507765
Cl         -2.00417957520395    1.63954498725668   -1.77604523623117
Cl         -4.17962368874185   -0.21581708754162   -2.24204567978730
H          -2.57496359399923    0.56648538018412   -3.79132476271941
Cl         -1.43530711326753   -1.09447005384859   -2.57002736134884
C          -3.28195758912434   -1.09735985052207    1.71924027390253
Cl         -3.48227324588308    0.55763650755329    1.12744489334791
Cl         -2.76778157208779   -2.15306450992561    0.39327278396863
H          -2.50122150620180   -1.10167752454950    2.48566739876733
Cl         -4.80244345436358   -1.68627137552228    2.40664860927300
C          -0.62738359839978    2.63643478492798    1.14313596503287
Cl         -2.08727324673769    3.62607497266552    1.19766210451200
Cl          0.08959733183599    2.50929170818098    2.75422269262388
H          -0.87759217151582    1.62810044844261    0.79704397846250
Cl          0.54888171432746    3.33508510065408    0.01686330619769
C           1.52456752899391   -2.93584893707639    0.14222269402928
Cl          3.02115163028244   -3.58396944548312   -0.53703650332819
Cl          1.40710221214851   -3.35826681250555    1.85291921921999
H           1.52570853060174   -1.84514208165689    0.05413400827564
Cl          0.12124339000146   -3.56891103170605   -0.73434950281944
O          -0.45378488511289   -0.87617622094561    2.95425174061572
H           0.11503864214186   -1.64361640375119    3.08812349671752
H          -0.05598301123702   -0.14586593953699    3.44035682055874
O          -0.00569945551413   -0.24767650895856    0.33683742632280
H          -0.64261919427752   -0.73126364686259   -0.20106768338669
H          -0.20412507711087   -0.50024802651508    1.26114820405925
