6
-8.226118431327
C          -2.23281041014196    0.05496580140963    0.43185297370358
H          -2.09757144644272    1.00522948327661    0.95982271278658
O          -1.23325717017904   -0.14929104983324   -0.53616387124442
H          -2.25990948515856   -0.75899403936567    1.16449321220803
H          -3.18059259949422    0.08017024072417   -0.10263898981177
H          -0.37509226455560   -0.17820768366530   -0.10046641053113
