9
-13.304463563999
C          -1.54409734247188   -0.61325381483693   -0.04683397090573
H          -1.33809498565394   -0.90192083114541    0.98773667823411
O          -0.77868532434434    0.51007519583591   -0.42942034826702
H          -2.61463594059438   -0.42378143427703   -0.16471906128669
H          -1.25243996986517   -1.42673929135386   -0.70818336034115
H          -1.01613047781394    1.25670006867355    0.13146477531976
O           1.95498944227728    0.15187398173397    0.30478940487976
H           1.04582478727713    0.22460241225418   -0.02080086730874
H           2.51932968535665    0.17849083157080   -0.46932683273508
