15
-23.479664307837
C          -2.45580609870130    0.06003919948141    0.37665820872186
H          -2.09349403111226   -0.03280035584275    1.40479631066044
O          -1.38821583723942    0.13853724628109   -0.53772724902282
H          -3.03092268001628    0.98073157168008    0.28241690960524
H          -3.10541360005986   -0.78995401917086    0.15106570404168
H          -0.84627201508627   -0.68145917509408   -0.45056996186709
O           0.62665966627568    1.88417685340495   -0.07381959580880
H           0.75171526128105    2.37529759452908   -0.88727934223108
H          -0.18222983650137    1.34223464697168   -0.20658649237780
O           2.29746340639340   -0.18362255420256    0.36706937040141
H           2.57816985079716   -0.14270513162107    1.28251823278340
H           1.77227716472305    0.63255280338031    0.20829253717014
O           0.33108796069269   -1.92693033793376   -0.22907612178727
H           0.58665257851712   -2.38953239159044   -1.02851045816874
H           1.10385854036002   -1.37294368843906    0.02181994568461
