21
-33.650885037021
C           3.11062552562169   -0.23015130457085   -0.46967667303012
H           3.75549735343230    0.60143158242073   -0.74886335881780
O           2.31329407289355    0.20806766071339    0.61172990888490
H           3.73522742392793   -1.07855844958987   -0.17936913151103
H           2.49452505560807   -0.51079689401893   -1.32903187022592
H           1.71597745707071   -0.52135664686907    0.86163512618349
O          -0.57212546535306   -0.51697783113031   -1.45436202402650
H          -1.53828326546827   -0.52956225353302   -1.30821490571561
H          -0.31069870130740    0.40131430322476   -1.26384214100795
O           0.26344800381336   -1.63392543248286    0.80212775951300
H           0.15981283658324   -2.58723896442992    0.76496228046911
H           0.02233590131178   -1.30437603046985   -0.10378280923684
O          -3.06667617356188   -0.32999533734332   -0.43382581616023
H          -2.60017510222782   -0.00868296087302    0.37673487995405
H          -3.75046901929784    0.31382905598148   -0.62299624104524
O          -1.46033366956434    0.48538021113931    1.56927401319512
H          -0.93699328189942    1.11481458557324    1.04837071932446
H          -0.93346706414966   -0.32384702831555    1.58914730818233
O           0.28991611437676    1.84870002994752   -0.12458682617706
H           0.52212382510013    2.77802170860970   -0.14482183290617
H           1.11099417572649    1.35833645786731    0.11543349113947
