24
-38.740274808019
C           2.81969946581965   -0.23090755780877    0.86956787579077
H           1.98157032806766   -0.26959231456423    1.57182821542379
O           2.38431216573384    0.08492123781957   -0.43756310454052
H           3.34977051778267   -1.18729271186486    0.88818632274567
H           3.50748852864728    0.55831203336396    1.17575292313498
H           1.77450305072363   -0.62030084752227   -0.74473747286174
O           0.62934243203688    2.10457426729105   -0.44433335524342
H           1.04747938686390    2.95156313833011   -0.60395261651868
H           1.34423766365566    1.42594576856646   -0.44788162989641
O           0.45699737441926   -1.71992128351496   -1.14449834830574
H           0.51557222344920   -2.61102463294471   -1.49912613329450
H          -0.03131927744408   -1.78436223506834   -0.27528953112265
O          -0.85562510431855   -1.71576196115841    1.11949070237480
H          -0.58362516779020   -0.86041778404488    1.51030399418406
H          -1.77269967498427   -1.55315382995398    0.86051035478732
O          -0.70072896156612    0.91225490709975    1.72960342096071
H          -1.61408190816068    0.87634442620869    1.41583040216000
H          -0.22323432101824    1.43267118820517    1.06346561696649
O          -2.89786317983177    0.00266677202174    0.19583073066005
H          -3.79058562840862    0.21693966488548   -0.07520827297468
H          -2.32156152893415    0.18578431341213   -0.58822780541970
O          -1.17067477956906    0.45146873820631   -1.77898245628940
H          -0.60134306098873   -0.33452647797718   -1.75523309894515
H          -0.61939063156133    1.16930846285447   -1.42890400010480
