18
-26.634766508276
C           2.23585779531767    1.36678282911176    0.37427670335281
H           2.08742076357222    1.02800260257846    1.40382994543595
O           1.34659374767015    0.72562398829675   -0.50906143610656
H           2.11352552014456    2.45263618061967    0.33680018897131
H           3.24673252895392    1.11296508382854    0.05656616165416
H           0.42688631853596    0.92678988873454   -0.21743802071659
C          -2.17197381376551    1.47349391678718   -0.46646890851071
H          -3.17791232040309    1.35045723259117   -0.05600591278513
O          -1.19939547860173    0.96027562226807    0.41193944491527
H          -2.12498946953394    0.98328960735285   -1.44361173117055
H          -1.96780913193102    2.53669674003892   -0.59032685487260
H          -1.36189195515953   -0.00622240293950    0.52190708409003
O           1.11840474729346   -1.97129885459201   -0.42125068103091
H           1.32395247621335   -1.01108851462784   -0.44521231824683
H           1.18686850100581   -2.27881965005415   -1.32647835501507
O          -1.36833399958010   -1.73543889525599    0.59619373396411
H          -1.35661712180245   -2.10221942689290    1.48156137070782
H          -0.48220186528195   -1.92200990135386    0.21402618217504
