27
-41.895202149495
C           0.54874815328084   -2.76859815465224   -0.55311439997623
H           1.36007385924588   -2.23258777817540   -0.05317477954969
O          -0.57086631837270   -1.92801423778190   -0.74557445999063
H           0.28122082583905   -3.65180211880526    0.03257704774196
H           0.88165537779446   -3.08635592210528   -1.54021214677022
H          -0.89705452824250   -1.65733897963124    0.13375217272013
C           3.42766905031867    0.82074069919597    0.63461915951684
H           3.77011826303960    0.66562624149336    1.66167864453371
O           2.24106132697306    0.11183530659602    0.38254732718770
H           4.18421912417988    0.44223834947038   -0.05261461099335
H           3.29538052020156    1.89400204777831    0.46444480229799
H           1.53561661458244    0.45463907331408    0.98949148961881
O           0.57216392119633    0.37022344057492   -1.75659630415019
H           1.33854335382290    0.32623540402852   -1.15212877484612
H           0.10715818949786   -0.47210536901482   -1.59985308568140
O           0.16066384093432    1.09197150873586    1.75806825683142
H          -0.43923384458469    0.33919038565806    1.87784290736100
H          -0.25059498839845    1.63453721034775    1.06683139941299
O          -1.74103938780430   -0.94163665762139    1.58894137875339
H          -2.31209646690133   -0.43595126914791    0.95742633257562
H          -2.32626740320958   -1.34228602413981    2.23221595425131
O          -0.94953627574016    2.13484688488829   -0.59496629233669
H          -0.35290049250160    1.50498419547127   -1.09760599501222
H          -0.92395406720766    2.96909461957617   -1.06345563721598
O          -2.97067645613456    0.35142496077712   -0.36600886652963
H          -2.35155927659156    1.10647398468431   -0.44199599571018
H          -2.78812429284479   -0.21579180459421   -1.11941703687874
