21
-29.789922401392
C          -2.71263891165641   -0.34741049005432   -0.89491535031883
H          -3.29640949251702    0.54580710386937   -1.13317151101627
O          -1.90420332973581   -0.13747618691135    0.23863580404407
H          -2.11176545235151   -0.62190809842384   -1.76693507117802
H          -3.39445319152022   -1.16398382755580   -0.65927034058976
H          -1.26647434681808    0.58392193067085    0.03017283141707
C           0.29320739930685    2.69791818928391    0.49788780993267
H           0.32812311353719    2.37490125626473    1.54269808904679
O           0.09095461463789    1.60773382727910   -0.36905262587818
H           1.22075356529832    3.22517485099669    0.25864775158008
H          -0.54612449403736    3.37946850615662    0.36247459758968
H           0.83349536894738    0.97302443714902   -0.24159096594699
C           2.64922978073170   -0.85473362914888   -0.92197412504841
H           3.21671337332934   -1.74119811145215   -0.62599064295029
O           1.91831751896644   -0.33464806532064    0.16277569442546
H           1.99187115047041   -1.11653493502626   -1.75663779367584
H           3.34473277171773   -0.08050877515584   -1.24479710853165
H           1.27417179792223   -1.02014195571536    0.45725624027839
O          -0.07105786679153   -2.02205241523194    0.89656254189583
H          -0.81369644316930   -1.43325885646420    0.64025289707885
H          -0.17073331668885   -2.18013148701273    1.83663564344258
