24
-34.873557389414
C           0.00701813470783    2.91861845109928   -0.83799689265166
H          -0.74283454326199    3.42480412441007   -1.44535509088834
O          -0.08710400774360    1.54327383376745   -1.11770695953008
H           0.99549901907877    3.30863451402308   -1.09923755499251
H          -0.18696117503912    3.12729163992435    0.21893308223590
H           0.54229355992101    1.06474786232496   -0.52998925979407
C          -2.16348327205378    0.40564841619657    1.16333633495506
H          -2.46411305921577    1.42909473075069    1.40692901849262
O          -2.25975469458773    0.16847150937568   -0.22354804419326
H          -1.14566295676275    0.23632061489193    1.52604605032147
H          -2.84303340499988   -0.28751839752258    1.65753144322742
H          -1.57912836421042    0.72088469127500   -0.66912344717924
C           2.87581264847981    0.37601274238074    0.47433598879041
H           3.08254331941436    1.43250936830559    0.64560209100981
O           1.48988436209809    0.18715314287854    0.63428484883501
H           3.20034183833405    0.10480653965699   -0.53478733018847
H           3.44050534345902   -0.21693061172412    1.19875943273096
H           1.29243597591453   -0.76896477755740    0.48326218393032
O          -1.49396902738278   -2.31478705693728   -0.96921710219295
H          -1.50686173964138   -2.27335292485534   -1.92665769985443
H          -1.86136053370215   -1.45837571052271   -0.65857651106625
O           0.91675932250901   -2.40548708155297    0.20016896240809
H           0.79376868534252   -2.96099580185458    0.97147574800435
H           0.05520902033155   -2.41454565084077   -0.27553944408255
