27
-39.958879300895
C          -2.31747721007576    2.05087651048791    0.75748816497588
H          -1.82894221629528    2.17560655650779    1.72738441814225
O          -1.57503824697393    1.20420041535475   -0.08735035401517
H          -3.29215443830349    1.58520558098852    0.90271402067806
H          -2.46199716301137    3.03715806843555    0.30033683595454
H          -0.66867244116092    1.56142194782222   -0.18426401914927
C          -1.95522487292236   -2.17225233820033    0.49962819991152
H          -1.91885539999056   -2.22432583439102   -0.59563800756493
O          -1.01830922033306   -1.24799967618662    0.99814522787107
H          -2.97491660946591   -1.90889802445203    0.80299636263130
H          -1.70178830094857   -3.14595373266686    0.91215660603575
H          -1.24250827273687   -0.36751359449068    0.62639846350385
C           0.08550513106897   -0.22657532564878   -2.78197867226547
H          -0.79704831125870   -0.07813814824739   -2.14941462262247
O           1.27752072130907   -0.16911713515861   -2.03179882963815
H           0.04208575253902   -1.21526058011928   -3.23880550957429
H           0.08006547495846    0.52875675746787   -3.57782384792144
H           1.24178400295834    0.63140410405566   -1.46737672783774
O           2.09847765789195    0.41284614153075    1.75467174437301
H           1.42916399184236    0.21579956436058    2.43466245635990
H           2.14930097700262   -0.41021941351649    1.22407715802084
O           1.62194513393215   -1.73409938808445    0.27865753488266
H           1.64388555974784   -1.42956666743102   -0.64525720449551
H           0.68234251091860   -1.75895146279382    0.52506416781147
O           1.06478804963135    1.91297492189611   -0.16812201784669
H           1.48115916623615    1.42480524894056    0.59038989233757
H           1.59078309963041    2.70851468438922   -0.33710208865104
