27
-39.959880327143
C           3.03026992728023    0.64584509165483   -0.26708568499422
H           3.48189671966125    1.36734538646132   -0.95424746374592
O           1.95616373588768   -0.03168954118463   -0.87274720963617
H           3.77592542899985   -0.10315250473621   -0.00333775213454
H           2.71428340813705    1.16881134467721    0.64102385338336
H           1.26434767224169    0.62194783147386   -1.10772416098219
C           0.73191671807623   -3.11987667416211    0.23991689933004
H           1.77688246990489   -3.41591390342601    0.36933225148649
O           0.52196263731442   -1.79492458345812    0.66646351812528
H           0.45320961278704   -3.24731484361249   -0.81025474192551
H           0.10270980040893   -3.76025897890480    0.85700106236214
H           1.07398394005719   -1.20381847757687    0.11001525173796
C          -0.15780242909651    1.40661299921697    2.18361286951184
H           0.54076353228194    2.24642674374483    2.24543548273661
O          -1.14497112240425    1.63239523050214    1.20293311944312
H           0.39710315533430    0.48424962862208    1.98604279560936
H          -0.67518248255008    1.31025948476417    3.13715725141102
H          -0.70612583836570    1.77757571888706    0.34449329011591
O          -1.95865161487357    0.05904782590266   -2.08628447689317
H          -2.03025474056953   -0.40468734860193   -1.20711414663522
H          -2.83452634564285    0.40367444608738   -2.26638197194968
O          -2.05889064794457   -0.86008548423123    0.37054941544306
H          -1.95726432825006   -0.00346845611555    0.82046585903627
H          -1.21534404363326   -1.32371489794503    0.52623852440321
O          -0.06784763057299    1.74685140068129   -1.38803943631838
H          -0.75927375210878    1.10846155192425   -1.71202873487155
H          -0.00739666991807    2.43811801033950   -2.04864963758230
