27
-39.960780203788
C          -1.20874038748998   -2.59239013045979    0.26905963208710
H          -0.81215093339114   -3.53928533480307    0.64660626160549
O          -0.94328253925298   -1.53798190366378    1.17070925077739
H          -0.77852660904212   -2.39139167481162   -0.71547775034544
H          -2.29120708050916   -2.67614954793376    0.18176700088202
H           0.02442117697980   -1.41212416789146    1.20680136469714
C          -3.14004333671636    0.78477925775364   -0.23303469613493
H          -3.78839825367512    0.59038927007058    0.62607624763184
O          -1.79026038297034    0.85869813434856    0.15408086998271
H          -3.29789193167544    0.00274931568213   -0.98315824736816
H          -3.40435186864817    1.74905745324339   -0.66577992417816
H          -1.53624731382023    0.00445803543695    0.56984461947745
C           1.09100481590052    2.23359976154506    1.58012285184044
H           1.47803957960077    2.04783458280808    2.58570776760237
O           1.87747022943109    1.58705877810033    0.60251301943686
H           0.04773064477948    1.90940156436689    1.52826495860585
H           1.14456377890735    3.30146817627878    1.37266663570170
H           1.87919218709276    0.63018867069015    0.79235691877004
O           1.77769810088708   -1.20533465905603    0.76068191433044
H           1.60256702728828   -1.27456227224240   -0.21344692711956
H           2.50577502642090   -1.79681105855910    0.95413143106461
O           1.20249193512312   -1.22806610627744   -1.82101768703195
H           1.90531841238273   -1.19227630515816   -2.47117956332919
H           0.78374949139537   -0.32092709385257   -1.83194167524908
O           0.27930550050135    1.21432683456021   -1.62543491833453
H          -0.55593001751162    1.17298068306944   -1.12444264390199
H           0.92925109907267    1.55120101704809   -0.98236174496161
