30
-45.050437848646
C          -3.81215147697592   -0.73715650638607    0.21863785042594
H          -3.65970301552538   -1.80824059330561    0.05131115587352
O          -2.60125404826725   -0.02885963551621    0.14184131166495
H          -4.46710005545689   -0.34538401552950   -0.55944669407806
H          -4.29153738031734   -0.59650714567416    1.19163882564946
H          -1.98532306727178   -0.38334148541423    0.83315396948367
C          -0.76022779454069    2.82884149620990   -0.47325533767682
H          -1.00643632667251    3.19674359179036   -1.46836228933225
O           0.37173984709038    1.99468850326084   -0.61080434855859
H          -0.54462493854958    3.68085986598391    0.17673820195152
H          -1.61240973097887    2.27264771832812   -0.07315451823077
H           0.62796344790695    1.68328328186257    0.27845225144809
C           3.28086040256523   -0.01167489618063   -0.81846887599863
H           2.49782130925788    0.60130812442700   -1.27275789588400
O           2.80760878705945   -0.67629194851799    0.33583908410430
H           3.65493742443381   -0.72606142678180   -1.55543019699714
H           4.10171274628257    0.63132026454869   -0.50346508589084
H           2.09278956851629   -1.29297488968374    0.06237151226113
O          -0.72254721520900   -1.04049307157380    1.76423974561791
H          -0.12131491191026   -0.29992635529702    1.93928626474670
H          -0.25296407731452   -1.59873277732123    1.12423089589743
O          -0.65716747838147   -0.28816322613680   -1.76034428402449
H          -0.20194426940737    0.54708462250767   -1.54597042772499
H          -1.49447374146718   -0.23128945951740   -1.26047187322809
O           0.63513385349511   -2.11622675499872   -0.43221440658811
H           0.61233368542595   -2.94033782232727   -0.91874855027136
H           0.15517360224654   -1.44028683590604   -0.99738371685157
O           1.26022016497124    0.92845931008041    1.80559286384522
H           1.90862918587650    0.35139707461464    1.33331884414470
H           1.73118910078738    1.33531509379776    2.53358019592561
