33
-50.141387180309
C          -2.61357917702226    1.06985483121066    2.20714970489449
H          -3.49206408697503    1.44558374162257    1.67684741162812
O          -1.68040374392276    0.51466354266376    1.30942766621253
H          -2.91805422899257    0.27655048726221    2.88893658843973
H          -2.16753284851624    1.88491767845311    2.78319723196715
H          -1.41018535348103    1.21281725642454    0.66006843338952
C           0.26405461690991    2.89373160474521   -0.44977834088532
H           1.04812624064544    2.18788192524226   -0.16637221423423
O          -0.97813769520123    2.23882116585539   -0.62131890854838
H           0.55775503384839    3.41530482609886   -1.36377237651390
H           0.13029919522486    3.62576468340971    0.34582897211253
H          -0.88790295346900    1.58557303452825   -1.34738505716599
C           3.73875038616072    0.27936497751112    0.44604727701205
H           4.28518780306507    0.69519518061708   -0.40500340909746
O           2.34962226430998    0.38993940306007    0.25819939316397
H           3.99194321574405    0.84563115576702    1.34213840339193
H           4.03901843463139   -0.76345476835507    0.58528607653369
H           2.09984367209593   -0.13336648441187   -0.55033743159772
O           1.48344825275676   -1.11077856447807   -1.76248564844680
H           1.07949458314204   -1.83118849099294   -1.25061002579503
H           0.73830449460569   -0.60764819770906   -2.12910613495498
O          -0.90092483981186    0.16713378507618   -2.41223449365797
H          -1.40425498451961   -0.44465399226286   -1.80360589248802
H          -1.38155770375965    0.18004602444151   -3.24029929049852
O          -2.08140665284911   -1.39568166973347   -0.67239168977516
H          -1.37468740168139   -2.03520451015800   -0.47123734375689
H          -2.12101447579267   -0.80827410691767    0.10128023597203
O           0.17576561398515   -2.77418872386107    0.04734279581954
H           0.36539370026120   -2.14224459331191    0.79799149984720
H           0.34356749981740   -3.65465781228500    0.38281775006676
O           0.61682010626715   -0.95759400986999    1.88023358868205
H           1.30102211731851   -0.41506751168891    1.43954871740674
H          -0.19425224982637   -0.42486325931752    1.84808854833970
