33
-50.141515907291
C           0.65788862558740    2.58551666958070   -1.26214559612847
H           1.17956297670721    3.35994865727136   -0.70126980888481
O           1.53902073299480    1.48347879064903   -1.36323153952959
H          -0.26030540590417    2.31222695818534   -0.73749190886398
H           0.40812309125758    2.97435322418523   -2.25250506918437
H           1.08335452648461    0.76801644617387   -1.85514608816678
C           3.28811090958278    0.43821647850030    1.44655476774256
H           3.46552578332043   -0.24458451038250    2.27671607859503
O           2.04861725985905    0.08889634457398    0.87476075103568
H           3.27088497067127    1.46379037041346    1.82444040176324
H           4.09731022173436    0.33814463825974    0.71899655638485
H           1.87973458450105    0.68022947350048    0.09821672092198
C          -3.01283708039079    1.89365664731673    1.14847338970992
H          -2.72090001900113    2.60666353869896    1.92452282960110
O          -1.88421986638887    1.35639245694064    0.50450249400279
H          -3.62400942203455    1.10707716972934    1.60103968936955
H          -3.60231630637213    2.41236299564144    0.39267248857900
H          -1.34232379068360    0.86620604574699    1.17876467580589
O           0.34912152831701   -0.73388953435851   -2.44324216168524
H           0.73769740013850   -1.34027829168732   -1.75056247773922
H           0.59004610299750   -1.10604165266199   -3.29199104089381
O          -0.42377662746337   -0.15960674556933    2.14012157642484
H          -0.68512441425109   -1.03242626634575    1.80235716949312
H           0.49235373765241   -0.03243052906718    1.84572253688954
O          -2.10991412758424   -0.80808215405211   -1.14705290625923
H          -2.15043723360735    0.03403486373074   -0.65243943236185
H          -1.34755214871762   -0.71997760209080   -1.74268599042526
O           1.30000599839819   -2.20574967460987   -0.49234540178961
H           1.72304668611912   -1.52741432090765    0.06057983179343
H           0.48287543561350   -2.44827373497509   -0.02029112905040
O          -1.16118214800310   -2.41216089648723    0.69403980983235
H          -1.75311837176986   -3.14822503521097    0.84829213461402
H          -1.58756519365603   -1.84864843961409   -0.01345868953215
