36
-55.230962735194
C          -2.00191610576342   -2.73281232650398   -0.10071885081644
H          -1.69763316246601   -3.69335619625581   -0.51493267404618
O          -1.86359874507036   -1.77496424057366   -1.12433031618711
H          -1.36902614901851   -2.49270966208404    0.75885614199991
H          -3.04069559762900   -2.80525191142854    0.23545512584523
H          -2.07393714202775   -0.89678336229526   -0.74492712844595
C          -3.49264081309986    1.12784200752873    0.43100524011582
H          -4.07118270767266    0.34700862317077    0.92514368714069
O          -2.20776372122572    0.60862807283963    0.17832487087236
H          -3.43982638184553    2.00189657223948    1.08459805267401
H          -3.99022867889838    1.40859140001196   -0.50107800108443
H          -1.64464875746200    1.33255502675750   -0.23674219276757
C           2.15158675489280   -2.37736273745871    1.54021899233731
H           1.38930417873669   -3.12793056532099    1.76621411795463
O           1.62805367682685   -1.35069110661088    0.73119793824608
H           2.96164499372756   -2.84838854214663    0.98431544595977
H           2.54503514484171   -1.97661078580765    2.47755424292965
H           0.90134571539348   -0.88697636885542    1.23367438535830
O          -0.59896485840281    2.44686839817833   -0.73673957380050
H          -0.00647732072152    2.01784567305682   -1.38021426482355
H          -0.04855317262580    2.60048306207236    0.05124497907924
O          -0.22800317923569    0.03719528278044    2.00541896547171
H          -1.02668690802082    0.13708663002779    1.45697711840798
H           0.19536138802303    0.91178060724144    1.99293751117715
O           1.20070155876364    1.07186397520045   -2.29619820014275
H           0.99796349619531    0.09837090592828   -2.19855914067227
H           1.39703779702315    1.21427265908832   -3.22248072419168
O           0.74619201255262   -1.46740069285124   -1.89239970942899
H          -0.20704956403699   -1.63980146014703   -1.77017471956468
H           1.14201760856591   -1.58561821084033   -1.01246817056109
O           2.78613991185505    1.05643883036144   -0.04145920064995
H           2.37049442882366    1.15019078558914   -0.91683013944396
H           2.59422513815037    0.14322557685932    0.23094953173365
O           1.09738147845715    2.41279074588761    1.43941903451331
H           1.80820435809143    1.94820053749392    0.91712286847049
H           1.52924971723581    3.09645937158813    1.95013458853203
