24
-32.945334115764
C           2.63703704999479    0.40086223434118   -1.22088949203169
H           1.99870292225031    0.24070260370817   -2.09503042494231
O           1.88910261700524    0.37698996838044   -0.02868500060651
H           3.42089283782165   -0.36133937959272   -1.21004431336729
H           3.10066441852261    1.38431186489221   -1.29266088759211
H           1.44909869649619   -0.50136196824892    0.03906791382586
C          -0.40623806217475    2.61755488005799    1.25632613974131
H          -1.38997989466337    3.08053921276616    1.32808137516375
O          -0.37708778805859    1.88075456976902    0.05733709223381
H           0.35601503305287    3.40144541411705    1.25614481535910
H          -0.24992742678083    1.97109805507236    2.12518423515877
H           0.50153269835247    1.44126109978726   -0.01044578506310
C           0.39740584384268   -2.63114896868896    1.25039605269666
H          -0.36475988252648   -3.41499935925892    1.23628202593275
O           0.38459729859661   -1.88893377365454    0.05446217192245
H           0.22924322325325   -1.98862494899630    2.11995921779224
H           1.38008476788603   -3.09449827465487    1.33347463587919
H          -0.49303050124959   -1.44911565033162   -0.02331131437661
C          -2.61157707343592   -0.40269662710835   -1.25830027818455
H          -3.07424973837002   -1.38570901261894   -1.34118728361519
O          -1.88025529166760   -0.38458567936943   -0.05574990889115
H          -1.96115976298368   -0.23846392084524   -2.12271280669444
H          -3.39543144364983    0.35956898484324   -1.25469597610476
H          -1.44106601254510    0.49335580207520    0.02204371042535
