27
-38.028830680644
C          -1.65084905942130    2.50499674930148   -1.10014792512603
H          -1.76393835474140    3.54605231711163   -0.78737150657975
O          -1.54677128374894    1.65050573744704    0.01384653115892
H          -0.77275468002910    2.42339409268764   -1.74850130600818
H          -2.53666801728695    2.20476757221002   -1.65963051548158
H          -0.75019568022137    1.92050809357409    0.53085723710498
C          -2.49075638599092   -1.61886384133208   -0.24263529636262
H          -2.78302251380396   -1.47380169019909    0.80175048628284
O          -1.26651239652642   -0.98308913992207   -0.52405140375894
H          -3.28816253411277   -1.24223264451775   -0.88870094582702
H          -2.35622327566003   -2.68369679260273   -0.43281766450665
H          -1.38123259589094   -0.01657834191610   -0.35937626012500
C           2.12610724481339    0.28167830724877   -1.29175227970092
H           2.74697628426159   -0.52024557282173   -1.70263550285731
O           2.29410237108352    0.38522751652904    0.10423202944025
H           1.08135918843010    0.09283257072813   -1.55488145923400
H           2.44335820416093    1.22898842835104   -1.72625407114328
H           1.91311362056915   -0.42336391236200    0.51368908796747
C           1.25533925781768   -3.05277648657958    0.58254537394744
H           2.19316774059840   -3.27610251182474    1.09037183753878
O           0.86382243068524   -1.76036942377800    0.97727282595442
H           0.50921730294497   -3.79815056156704    0.87390536280390
H           1.41015203051155   -3.11194571676970   -0.49938438821815
H           0.04795066460545   -1.51944895563275    0.48094929158005
O           0.74235551647856    2.25545606142083    1.29584680812518
H           0.78313525227686    2.00651705633452    2.22055472595055
H           1.38228873389547    1.67289349974346    0.83264420230710
