30
-43.115671083985
C           2.21440939677156    1.00984101552736    1.67531770404474
H           1.91562393884194   -0.04153446282013    1.63794825929262
O           1.36567842571700    1.81622084517863    0.89286688886699
H           2.22000357329042    1.33864267267163    2.71932643257350
H           3.21948898663705    1.11590820675917    1.26866225137322
H           0.44446862200923    1.66802301215815    1.18065956029785
C          -1.33810571587235   -2.29085790721711    1.61766443009104
H          -2.12423509962456   -2.15918372386591    0.86792641361892
O          -0.28930369061873   -1.36936147355305    1.42809910903978
H          -1.77471909814232   -2.19208819757466    2.61511755418588
H          -0.91274099261078   -3.28841263098886    1.51583917191297
H          -0.65436215478470   -0.46773134086860    1.51714805526372
C           1.95729864076377   -2.12316124656309   -1.16889970193606
H           1.82350143825630   -3.16753913326330   -0.87199221289896
O           0.73946515383654   -1.42050299942752   -1.12827943089209
H           2.70647447308451   -1.66219159671893   -0.51723249855808
H           2.31250984906660   -2.09056342410693   -2.19816805354082
H           0.40068362506828   -1.43695396533556   -0.20773797586985
C          -2.33716424719798    0.17759802758604   -1.83902622606935
H          -3.31332210254585   -0.02034906226688   -1.39524549420794
O          -1.80512644196478    1.31923641237879   -1.20386736034532
H          -1.68842453095487   -0.69155040890381   -1.70147075096890
H          -2.46589585844975    0.35625515588941   -2.90952051507197
H          -0.86933525469027    1.43422785093902   -1.52948001666408
O          -1.30681588302916    1.19052992791967    1.38285294342715
H          -1.88041522022725    1.81016395906484    1.83541487702602
H          -1.55463549149620    1.23340310363883    0.42045689990521
O           0.77666102877923    1.28005918956749   -1.77613685701115
H           0.85558065844046    0.31152207224053   -1.71649906154757
H           1.15089010993769    1.61848462047272   -0.94537124912834
