33
-48.204225499086
C           2.84155739931678   -1.66930844177322    0.28161015671626
H           1.88929736132548   -2.00903266314144    0.69773128219117
O           2.65646273451962   -0.56353601459931   -0.57774815419495
H           3.27606719624249   -2.46725864573951   -0.31890087014152
H           3.52744707174603   -1.42536180817787    1.09711167298768
H           2.29892076001887    0.17566487659808   -0.05089770499427
C          -3.39562255137631    0.54577724477225   -0.48198185230092
H          -3.89955816170789    1.04840856333820   -1.31287893739038
O          -2.45760539475707    1.39664885201452    0.13487215417440
H          -2.92198514848424   -0.36700094876743   -0.85509189860409
H          -4.13598208174543    0.28448476200699    0.27298721714913
H          -1.75404202943218    1.59237689499825   -0.51343450586879
C           1.82015018314347    2.80379293760856    0.99440787345319
H           2.45250887067847    3.20457567640674    0.19745087431951
O           1.27533527200642    1.55561723427000    0.63138170811619
H           1.03183939359292    3.52473150594912    1.22548776548765
H           2.42764671117132    2.64288817740170    1.88386736531627
H           0.70444910394364    1.67478903092574   -0.16194357851612
C          -1.58642952506625   -2.97799846151775    0.78889645682731
H          -1.48635361588118   -3.80800963083554    0.08950955634021
O          -0.58341738233770   -2.04508081288531    0.47778756025855
H          -1.47123500564292   -3.35589734877139    1.80879485594399
H          -2.58540714839924   -2.54187826315665    0.68493190711963
H          -0.66104444274560   -1.27499092161433    1.10021449185496
O          -0.30082512297275    1.58821122338904   -1.57642268208774
H          -0.12687875974709    2.02483297716197   -2.41098429928172
H          -0.14513077034742    0.60640442585335   -1.73758723883335
O          -0.78681568576893    0.16500200385246    1.95488961741238
H          -1.50027584005931    0.62819658273826    1.47866867455534
H           0.02304291524019    0.64431550756290    1.72540370957994
O           0.25102975398902   -0.92455686600999   -1.86404640800808
H          -0.16106131427507   -1.41973068323495   -1.13019247096365
H           1.19785000828759   -0.90031059765142   -1.62943604073734
