33
-48.205860120965
C           1.33894727536934    3.16027549917027    0.28851809764852
H           1.94608152469060    3.25402333591812    1.19284102747350
O           0.84400682495620    1.84936241010761    0.14367099232789
H           0.47833813855763    3.82352722606782    0.36757753747729
H           1.93897917839186    3.45123590016038   -0.57741194538072
H           1.60791108700519    1.22833395121056    0.05124989557524
C          -3.85301069736987    0.81779547431193   -0.19036661219130
H          -4.43307944405808    0.67758942391566   -1.10232122222244
O          -2.71221493373324    0.00315668387552   -0.28982363036038
H          -3.58249964483504    1.87461523861456   -0.09829263763814
H          -4.46669028510547    0.53394721265584    0.66923831119888
H          -2.16203050466782    0.13001299896645    0.52770487418566
C           3.15995319826005   -0.74926241143951    0.89408227118486
H           3.85027795507196   -1.54747423445790    0.60909074530775
O           2.76707946385319    0.00195714998767   -0.23640854202738
H           2.29667330651710   -1.18642230711013    1.40094623417011
H           3.67183715334407   -0.06602856673778    1.57057704803663
H           2.24052228810696   -0.57822502780375   -0.82404102424496
C          -1.07541364123389   -2.93702493998758    0.75915635949720
H          -0.82001504587490   -3.89368727360727    0.29489140405264
O           0.05555265351362   -2.09602215861027    0.84348937333267
H          -1.87852264422006   -2.46053071208750    0.19044508807889
H          -1.41533946439429   -3.11747431309075    1.77777362321887
H           0.36833816675508   -1.92206321716171   -0.06563955333703
O           0.91786477163393   -1.40348912690511   -1.69527857958943
H           0.30945997892515   -0.62099736759775   -1.84219536111643
H           0.98333776400815   -1.85448293182353   -2.53750905650448
O          -0.94796943755117    0.34551734393612    1.68142035293752
H          -0.53001810556167   -0.52727708575938    1.57053792296608
H          -0.33527963936440    0.98147660011560    1.28050857884129
O          -0.63696087556331    0.67589407084105   -1.91269927011393
H          -1.47257090493812    0.42214051389794   -1.46922448248224
H          -0.19094063136507    1.27783925967637   -1.29449227715779
