33
-48.205749509085
C          -1.59527084544725    3.03279770804193    0.27385324223214
H          -2.22424660973123    3.26413786160937   -0.58969913902957
O          -0.97980155526046    1.77315816652512    0.12982733761207
H          -2.20539594001908    3.07067704092188    1.18054390794700
H          -0.80139309541316    3.77525449182815    0.34810417295723
H          -1.68649970892054    1.08925714799449    0.05184686654701
C           3.78535809346517    1.10608738350602   -0.19791856982899
H           4.37633267674132    1.00663396725790   -1.10758310512687
O           2.71704219562927    0.19716802893217   -0.29171163025536
H           3.42612681975285    2.13735229445712   -0.11683603703339
H           4.41855256318571    0.88411972503268    0.66523578795122
H           2.16456040851509    0.27829392142909    0.52577535995359
C          -3.08903098680492   -1.01233016192941    0.92956224666982
H          -3.65007717906744   -0.37695227593226    1.61546453238678
O          -2.77299512920225   -0.22695648625554   -0.20265913179074
H          -3.71204344321487   -1.86595466950711    0.64886597017814
H          -2.18566234625010   -1.37528861558095    1.42656109010549
H          -2.20742736109808   -0.76222915967534   -0.79472023273956
C           1.33041273462138   -2.86070874117963    0.81772163580449
H           2.08513579388766   -2.31810260702773    0.24182050232068
O           0.12701867196247   -2.12714482393187    0.89891547511054
H           1.68790019114597   -2.99824060559912    1.83707512777171
H           1.16445875148868   -3.84209233252636    0.36396504725976
H          -0.20423038295905   -1.98196156246576   -0.00803795071519
O          -0.80760691206487   -1.49865953122599   -1.64585301918859
H          -0.84098241617127   -1.97510427951492   -2.47568786066255
H          -0.27170129962289   -0.67282094301785   -1.81895293994432
O           0.93159448474416    0.40432520844405    1.69580020942365
H           0.58363326232618   -0.50012426187243    1.60035410805110
H           0.27018714903216    0.98710539141086    1.29549091837315
O           0.59054570005880    0.69338313330000   -1.92980597326277
H           1.44396450658763    0.50844800502583   -1.49144707146716
H           0.10915824174344    1.27634072626023   -1.32076028233288
