39
-58.386029256705
C          -0.27174943888098   -2.83226572263434   -2.11217309461964
H          -1.19383604231715   -2.58176873941133   -2.64370692504301
O          -0.04892984845907   -1.94793690308010   -1.03972058048425
H           0.56254773683962   -2.81140044955668   -2.81792615695316
H          -0.36235391892702   -3.83430398406286   -1.69403336908802
H           0.04879622276341   -1.02146187595653   -1.40048006506914
C          -3.80728419362296   -0.16744696868092   -0.50665763842193
H          -4.41917985135395    0.66184528469190   -0.86201177949652
O          -3.06292674604462    0.29542510946137    0.59546291086674
H          -3.15170585617980   -0.50116088338115   -1.31772124687801
H          -4.46246685279730   -0.99262949515841   -0.21844405596611
H          -2.53905924606763   -0.47245614564433    0.95315529762642
C          -1.74685606664622    3.29840156329728   -0.34726509596971
H          -2.46693237399695    3.24527678399992   -1.16812262039201
O          -1.17870746865812    2.03413948881179   -0.09061058588389
H          -2.24576417117022    3.69062361583840    0.54200422253337
H          -0.93531119659354    3.96894024500664   -0.62809026289296
H          -1.90300870568080    1.41279436191243    0.19205457600420
C           4.00057424641455    0.92170555952773   -0.66754968050503
H           4.63540331503932    0.82602991494267    0.21704824053818
O           2.65095296513624    0.67930034726886   -0.34906232254884
H           4.35267599786500    0.22885718935708   -1.43620251494614
H           4.06782677196979    1.94095971184243   -1.04722960820715
H           2.56419296655727   -0.25380719698962    0.00456388461607
O           0.33820117851250    0.53455496013617   -1.85092386925058
H          -0.24111107036911    1.12144779271150   -1.33467615729988
H           1.23164911393162    0.68182154910071   -1.49592689511984
O          -1.51059451523422   -1.72434986649366    1.30826226353461
H          -0.80605404191663   -1.39377114950389    1.89119246773371
H          -1.06803052759707   -1.93960398337954    0.47048219465437
O           2.16354874042073   -1.72427430677671    0.60924565851186
H           1.45423746099315   -2.01093651607783    0.00896959634314
H           1.71411238248139   -1.49532392546358    1.44104605395055
O           0.98703098399641    1.71388487904804    1.60295859914842
H           1.68216338890886    1.52269389444964    0.94997814567999
H           0.19392258909424    1.92576091845664    1.08094798685711
O           0.65111959166884   -0.66881183455848    2.66185762924573
H           0.74753746868463    0.25997200947825    2.31623255820172
H           0.75833891694842   -0.61728562839181    3.61167795991039
