39
-58.386030647221
C           3.54576726935792    1.12668650174958   -0.01441808736158
H           3.02540800428083    1.27540922102303    0.93750051588091
O           2.73082299500512    0.45110208459681   -0.94303888015900
H           3.85951627235932    2.09853329646617   -0.40214842213134
H           4.42991324440036    0.51204544140771    0.15557124910515
H           1.94619076072272    1.03187599277763   -1.13867781209622
C           2.56784881486837   -2.78208754776323    0.14280361445109
H           3.40663527664158   -2.50380401994612    0.78639802847961
O           1.62114109699153   -1.74052583357289    0.06735688772957
H           2.94717159441028   -3.03838953960141   -0.84916808832989
H           2.06414494602680   -3.64914514792612    0.56898328327863
H           2.05620095513722   -0.94541609175810   -0.34266279502408
C          -0.17101925023446    2.70109493971174    2.44111664975204
H          -0.46855706579002    3.67720138006519    2.05927229893969
O          -0.37302384458039    1.76619600660353    1.40805311864019
H           0.88069821115562    2.73848337459469    2.73768639432558
H          -0.77892405541368    2.45671071470194    3.31588621305689
H          -0.11824851041661    0.85825795520229    1.73995635580042
C          -1.96149144135583    0.19331503218288   -3.38286007906608
H          -1.19068104556014   -0.18218557975801   -4.06055599916795
O          -1.47976182691880    0.26430129753357   -2.06138519613057
H          -2.23972615967233    1.20333211563608   -3.68226457500850
H          -2.83926476949494   -0.45486531639502   -3.44547226677483
H          -1.23202535955484   -0.65584297069115   -1.76022392634911
O           0.55265888159814    1.93326468392849   -1.20014806731825
H           0.25612368303732    2.01963270815682   -0.27864531401278
H          -0.13699073144724    1.40949494250933   -1.64176974498195
O           0.15426608437868   -0.70310816070895    2.17063557578070
H          -0.71434359779585   -1.10670772275211    2.00272529832404
H           0.75363536148967   -1.10893044132185    1.52071579307031
O          -0.88450350694684   -2.10214124437299   -1.06117920722457
H           0.03634471954571   -2.06579396535101   -0.75117661604160
H          -1.42920830728746   -2.08097979357006   -0.25587943146357
O          -2.74685793190586    0.86692467696184    0.31271671889743
H          -2.46628787057782    0.76864781551135   -0.61409237355630
H          -2.02868026110962    1.36276193828533    0.74264430003999
O          -2.30729410546424   -1.54855123956468    1.24626727243705
H          -2.55377320333824   -0.63864970436375    0.91959741457908
H          -3.09850126169906   -1.92108244199357    1.63536284471855
