36
-51.355089982852
C          -1.81572479803646    2.53350089562915   -1.03757898313572
H          -1.72367906748080    3.60844706357271   -0.85372812849096
O          -0.60827980547054    1.99333985573979   -1.51984736187314
H          -2.13185073584247    2.04313617441469   -0.11193979006056
H          -2.56899574400237    2.37094140692361   -1.80736755622866
H           0.06162176613358    2.06703015003800   -0.81533282273916
C           0.77019650506079   -2.99326761142175   -0.31099949365461
H           0.44569114383351   -3.77437037662297   -1.00380977762595
O           1.31562696154780   -1.89947927254641   -1.01331551190416
H          -0.08263609625708   -2.68728286521777    0.30057917125084
H           1.55376786673833   -3.39448857712291    0.33220471314175
H           0.57595570992957   -1.47163415041111   -1.52252888986790
C           0.06903225549857   -0.20861213843530    2.88566313677493
H           0.51230370584114    0.42824378228364    3.65661609438984
O          -0.74521221942326    0.54690734017835    2.01464576697936
H           0.86757837389949   -0.71820046031825    2.34042405324949
H          -0.57021567914319   -0.94869163545357    3.36489746593935
H          -0.16390594427081    1.16152624701913    1.52469889482289
C          -3.51447709825187   -0.98643406976445    0.53396304303702
H          -3.84197861032147    0.03565051997635    0.31642003661873
O          -2.13046478694709   -1.13577339670453    0.34139753798389
H          -3.80334780017543   -1.23938511956360    1.55838307080965
H          -4.00978283180396   -1.67143453750952   -0.15327462816956
H          -1.65941661038115   -0.53346106712326    0.95644300677061
C           3.85084789142604    0.15025499557589   -0.47327114549402
H           4.43707973534594   -0.76521126267964   -0.57589725273303
O           2.70734103593426   -0.07173251721667    0.32086091546254
H           4.45785556770593    0.90475441341673    0.02781700636145
H           3.57641205846663    0.50835461102568   -1.46966991384874
H           2.17244238117008   -0.78083488222307   -0.12402644972354
O           1.13209820871387    2.03038715310161    0.64027240072480
H           1.74426809892127    1.26188956874903    0.50441055256092
H           1.66282687842963    2.74664120286619    0.99157512459270
O          -0.82016193946682   -0.73134137370591   -2.07035407321679
H          -0.72143589300875    0.23558445759687   -2.04493465372518
H          -1.41067384340754   -0.95050318614270   -1.32891406398298
