36
-51.355723622394
C          -3.63474458773878    0.49001505756571    0.33446839148183
H          -3.06227816280602    0.34735840734985    1.25424481581167
O          -2.79208354063689    0.51508871760343   -0.79761634379224
H          -4.14563526937776    1.45076467495993    0.37232042636492
H          -4.38040745193532   -0.30587575499593    0.24907234489031
H          -2.26908023604612   -0.30988021355136   -0.80951872752338
C          -0.05263386692031    2.32779886430601   -1.78707471817211
H           0.80438709175150    2.98947745632040   -1.66403673457291
O          -0.79555174953190    2.38789284154607   -0.59143884452242
H           0.30008963712694    1.31193614321349   -1.98779705601628
H          -0.64642146071621    2.67385694310220   -2.63758805299382
H          -1.57898492894446    1.80608557636467   -0.68911086643145
C          -0.05113450604526   -1.81841485465111    2.59890123706379
H          -0.40772767582185   -2.85239212860564    2.61711238658069
O          -0.97507487440630   -0.97204872357583    1.95052941998079
H           0.92837143786998   -1.78099515632999    2.11340547047666
H           0.04513007226646   -1.45936246623674    3.62219420094477
H          -1.07866102755888   -1.28318372190596    1.03350917483284
C           3.52800622626455    0.82182462774123    0.34503164331184
H           4.30421533593576    0.21788786369410   -0.12636423256859
O           2.41142417724177   -0.00785756044958    0.55564738171683
H           3.28012114485131    1.66273058087413   -0.31046406845503
H           3.90882932216348    1.21213805057339    1.29181094087014
H           1.70747634237416    0.53773383776475    1.01556414060684
C           2.04641048260658   -1.88273762336144   -2.22645385095787
H           2.99391306370349   -1.44357527005363   -2.54861991241437
O           1.21213102756692   -0.91078290160106   -1.64224308531487
H           2.25421670333950   -2.70020611758510   -1.52895956860019
H           1.52808334118236   -2.27805171854956   -3.10027159838458
H           1.67461308146719   -0.54916351269380   -0.83914213647370
O          -1.16020196243384   -1.73093562817730   -0.73840200983717
H          -1.40800438210827   -2.50571737904722   -1.24507587277834
H          -0.29881289853898   -1.41374335191639   -1.10432264615730
O           0.46708669838095    1.39275699782374    1.62922299565121
H           0.04187164620803    1.86676645897345    0.88861480503423
H          -0.15016512687975    0.68548758929201    1.88044138282070
