36
-49.424170952828
C           3.79597009152847    0.26075135296924   -0.74341519646253
H           4.53858623609805    0.76598411446892   -0.11971090607439
O           2.90980815926510   -0.50153378783931    0.03926503237919
H           4.30873921732091   -0.42710248020697   -1.41564442404514
H           3.26281194904310    1.01200097301104   -1.33503469563987
H           2.42446817782528    0.11397284527767    0.63583190092896
C          -1.47011664386888   -3.11170147917771    0.94250442138666
H          -1.97409621794464   -3.43224077728348    0.02495199963793
O          -0.97503180864333   -1.79994168276333    0.82449281134278
H          -0.66560440864901   -3.81616888452481    1.16794272283146
H          -2.18647543663400   -3.11563819680456    1.76394637063240
H          -0.31754840991397   -1.78219344676149    0.08687771571227
C           0.46414015806388   -0.76088840716890   -2.20464861911242
H           1.25653462955852   -0.68295343529385   -2.95402119066182
O           0.80712954507250   -1.69240803990397   -1.20141162086545
H          -0.43893521477131   -1.12926782672773   -2.69157643848512
H           0.26977480194001    0.22873816553784   -1.78170454998433
H           1.63060362131535   -1.37570140108737   -0.76390577923426
C          -3.44528896208144   -0.10792593970699   -0.71547338596684
H          -4.02411090151410    0.75740382662875   -1.03730329203309
O          -2.59667147262511    0.31757878712513    0.32401962119418
H          -2.87349099585741   -0.49106014228738   -1.56668925054587
H          -4.13397263706026   -0.88445921913074   -0.37080968282232
H          -2.06230269794934   -0.45458018812536    0.61897030738018
C          -0.95713986078245    3.31189521629987   -0.31959328541938
H          -0.08143334631230    3.91908259523164   -0.54665126243791
O          -0.55983141893534    1.96307376670101   -0.38739945378235
H          -1.74041367837653    3.52926883654657   -1.05154506177284
H          -1.32326270143517    3.56996663128646    0.67845056131164
H          -1.33267555784379    1.40035429773547   -0.14642693631363
C           0.68233293133676    0.68785924086537    2.50104024680193
H           0.00362801510808    1.41274412517261    2.95870248825363
O           1.39127195362397    1.26771868701938    1.42588399813686
H           0.11021694246136   -0.18464765586050    2.17587259018880
H           1.42069506343129    0.38012516321422    3.24030900319132
H           0.73903189714129    1.55796738146324    0.75272756800163
