36
-49.422791115806
C           2.82588090383887    1.74275376119856   -0.79788998784009
H           3.24477061941010    1.95433033352157    0.19128827387390
O           1.59933870114207    1.05948349509382   -0.70088399209756
H           2.70964540815539    2.68434175614782   -1.34037001446895
H           3.51469027316737    1.10041823045363   -1.34675671099104
H           0.96056236761353    1.63931275220284   -0.21664357431186
C          -2.72435953702646    1.59175280540491   -1.47001769930299
H          -2.75573392176035    2.65229633691059   -1.71800828921186
O          -2.49325106759391    1.49306309198807   -0.08492161588349
H          -3.67782741903025    1.13291707861445   -1.74329309612963
H          -1.92296783694454    1.11409464385572   -2.04272373752954
H          -2.49751357982017    0.53851580227626    0.15557065918571
C           0.02413276128481   -1.61082542689031   -2.27364652642026
H           0.89027550509674   -2.10522258810849   -2.72514764313081
O          -0.35937561955088   -2.25829762305834   -1.08118588602773
H           0.26820907367789   -0.55969565363186   -2.09795732158854
H          -0.81677255223345   -1.67950125705979   -2.96295247278895
H           0.32610570572562   -2.07507525185489   -0.40430674530089
C          -0.04318581995672    2.18239897040481    2.10647197172197
H          -0.06850670983103    1.09774623461241    2.25097660534824
O          -0.13575225242416    2.51993035531654    0.74125642914909
H          -0.85486085764520    2.63614242459446    2.67952973742386
H           0.90743372007395    2.56985568843002    2.47325817304667
H          -1.02300026727136    2.23421522698489    0.41926328961027
C          -1.94840664932166   -1.55607763916477    1.70537174818370
H          -2.54502959609020   -0.98910078232646    2.41934330358790
O          -2.36473690161880   -1.17344750504400    0.41423594534106
H          -0.88786253080171   -1.33905573341797    1.86174317354608
H          -2.11750300881556   -2.62409390281874    1.86876149029007
H          -1.76674654185465   -1.61103859754711   -0.23015964558665
C           2.76749759965390   -1.85103406483803    0.76043502181911
H           3.18716197353217   -2.00867033298324   -0.23828804362308
O           1.48762841895586   -1.27065168182419    0.69622746113423
H           2.66037994160167   -2.81497398471804    1.25682873113965
H           3.45636124463285   -1.22880961362773    1.33968336487648
H           1.55828164364888   -0.41136730410938    0.21889312244313
