39
-54.511662181807
C          -2.03278411059690   -2.05374932938332    1.92252009805798
H          -2.68033877168219   -1.82962742435865    2.76903019843104
O          -0.81886631501575   -1.36835785436467    2.14189204039881
H          -2.51794321138481   -1.71817276291067    1.00139014787753
H          -1.87423903307231   -3.13492474288996    1.87501552236704
H          -0.20662467126892   -1.58602435355359    1.41357651382432
C          -3.56055551661050    1.01348511831001   -1.49226046331542
H          -3.98831052294168    0.45583787064821   -2.33034756611763
O          -2.80038341370699    0.17508121932333   -0.65736328605219
H          -4.36997255373643    1.42163364522394   -0.88794881494012
H          -2.95753349884407    1.83905840867221   -1.88440783568258
H          -2.07338342590150   -0.21822839839845   -1.18929530718598
C           1.59541259618006   -3.09102834007636   -0.02147668225637
H           2.09615673235320   -3.29710560619794    0.92758346565223
O           0.93567064285784   -1.84528556658102    0.01541246920831
H           0.83843793510105   -3.85375712533723   -0.20135176072914
H           2.33202441039679   -3.12325882135305   -0.82899429267467
H           1.60602778414228   -1.13501755783088    0.18868666995258
C           0.13996158422127    0.22279478371133   -2.55233340398181
H          -0.45382117212592    0.70450547041244   -3.32847805735317
O          -0.64553946399810   -0.82322705732214   -2.01944121413129
H           0.39867049232919    0.95811447397960   -1.78563817468286
H           1.05548642733225   -0.16789536809510   -3.00619230693962
H          -0.12392396952340   -1.27384292440811   -1.32663002389336
C           3.66912921879630    0.39982807460996   -0.51301617608719
H           3.25992008197273    0.53125844321155   -1.51965607353590
O           2.65181607369620    0.15833758011975    0.42897529461212
H           4.24706384661707    1.28956414856507   -0.24859347907220
H           4.33338348759718   -0.46441158074089   -0.50543061935658
H           2.01931946261658    0.91956586208698    0.40664380965792
C           1.19242696094329    3.36493305024667    0.75405114015959
H           0.38765429354540    4.09334697085357    0.62817420537534
O           0.83827155026974    2.12173210919687    0.19679090033438
H           1.42050798483251    3.27028025941205    1.81979074776443
H           2.07852560413203    3.72160109725682    0.22775808514770
H           0.01161507025249    1.80271977083551    0.66273180984856
O          -1.32312015173365    1.24655657369210    1.41309571622280
H          -1.10708803279850    0.41539903432576    1.87297221425777
H          -1.95762345931643    0.98427430883953    0.72142738998104
