39
-54.510752551980
C           0.56409791349012    2.79618628573229    1.68885106967294
H           1.06055966281295    2.96680833608132    2.64305225309861
O          -0.34725195595792    1.73644732404037    1.88286438189571
H           1.31366179622653    2.54088260160754    0.93411758111265
H           0.04763007462657    3.71260735190679    1.38922478851710
H          -0.81993628833586    1.58577415079381    1.04222132637329
C           3.74137681876377    0.17075773657703   -0.84170309709752
H           3.67254988601592   -0.82572298415238   -1.29176142525306
O           2.51860005521943    0.56383656904353   -0.27084463470219
H           4.07024828538262    0.88198159263531   -1.60482179544365
H           4.47758290775921    0.14511231714550   -0.03913273844381
H           1.84181782946849    0.61547067658281   -0.97891783612045
C          -2.78985009560792    1.89672421603969   -0.89613713498865
H          -2.48674380903916    2.92247999816700   -1.10403695040639
O          -1.63095826607715    1.18139160307426   -0.53114571832018
H          -3.24990707565666    1.47051322726400   -1.79120109617165
H          -3.52157857856479    1.89790831974339   -0.08383319149482
H          -1.87674052882266    0.22806880805176   -0.38855818862671
C           0.10111671368919   -0.40757154067486   -2.90774490433162
H           0.97485526743404   -0.81382979688537   -3.41637109709345
O           0.53273159315715    0.71009506460539   -2.16383737475900
H          -0.33394811411203   -1.17498599409628   -2.26205545829809
H          -0.63866030990674   -0.11606955843419   -3.65919702977379
H          -0.22486453928617    1.03047035337377   -1.63462325937605
C          -3.16894719400271   -1.57076480622637    0.87758537034890
H          -3.33733393459945   -2.63335840976481    1.06397616416755
O          -2.21575486116538   -1.38428257627486   -0.14565342428971
H          -2.84764246893448   -1.09350335368192    1.80792010232047
H          -4.10194097704012   -1.11788175616687    0.54167618765128
H          -1.38077900398665   -1.83077920704455    0.14427036651872
C           0.97870493153216   -3.10011776770786   -0.02577010473649
H           1.44057280529352   -2.37710009697679   -0.70571421708674
O           0.02343237549361   -2.48704938836753    0.80339121434385
H           1.76349825392934   -3.57800358963416    0.56672972832621
H           0.46500521416826   -3.86187333989096   -0.61280706737295
H           0.48549361017132   -1.78195201108661    1.33543177760718
O           1.29808183171710   -0.49588979414495    1.98550845468809
H           1.87373088372972   -0.16415494378315    1.27555201070157
H           0.67483686010687    0.23140855917410    2.15671378152667
