45
-64.690276849836
C          -3.90346510319355    1.25541200387962   -0.72324554704723
H          -4.50942246276307    1.14169119657922    0.17904478950113
O          -2.70220521719681    0.52990832463635   -0.61623893005245
H          -3.70792885555163    2.31996492523192   -0.88256122235295
H          -4.45328983133719    0.85528696502091   -1.57717666860153
H          -2.18059645831188    0.87867313676952    0.16398491714663
C           1.23490366526838    3.57582489289549   -0.79379188639018
H           1.92805571088973    3.53891194852473   -1.63825788779213
O           0.90896219551014    2.27810684823782   -0.35387359843023
H           0.30766330279094    4.05423655870055   -1.10993406521553
H           1.68396221973961    4.16078104862076    0.01389545175901
H           1.75063031136907    1.81913525299509   -0.09220805880590
C           2.91806495303900   -1.30792201375579   -2.36227461513516
H           3.89425900608073   -0.88657139807996   -2.60045718737675
O           2.85358499809954   -1.42902021420827   -0.95705691294655
H           2.81951008601575   -2.28843609027332   -2.84050126984588
H           2.13520879975727   -0.64121857578021   -2.73479277716380
H           1.95791827732884   -1.74231684983436   -0.73140510381018
C          -3.22849069465878   -2.49011306818578    0.92014555364865
H          -4.31058226440011   -2.40742144311863    0.78039885699049
O          -2.53183216160123   -2.20389787935850   -0.26842941240506
H          -2.99011585287504   -3.51560295819206    1.19709233562040
H          -2.92897367680426   -1.82316694573615    1.73453435809821
H          -2.68796145534377   -1.26421262393560   -0.49419118998603
C           0.28340625431990   -1.77875078362005    2.91205945195545
H           1.15264105518946   -2.43938058805857    2.84572308445154
O           0.35821412078223   -0.75233120354392    1.95483934859437
H           0.27362923395281   -1.30579392938583    3.89388257111166
H          -0.62707466967610   -2.37522362092804    2.79247122563277
H           0.34221288420249   -1.16107016322369    1.05156966503257
C           3.31689229363774    0.77393340872414    1.63574181342434
H           4.20241198507855    0.16611367922651    1.83543471452783
O           3.16649048378789    0.99594551988553    0.24950880112156
H           3.43941131601607    1.74959621342099    2.10835543079438
H           2.43502345470443    0.27592023155925    2.04670926106488
H           3.10570793706799    0.11701416211550   -0.19172766083931
O          -1.15726522973956    1.43736211480554    1.31772282564249
H          -0.70531845717218    0.66274296144379    1.69996581369028
H          -0.46888532561578    1.89080115205342    0.80476557774169
O          -0.27898205785297    0.38637022488225   -1.98430378837010
H           0.16784475310827    1.10497399246404   -1.50140525085698
H          -1.22099949177891    0.48274119033855   -1.77853016561760
O           0.17068016487641   -1.78641197459607   -0.51024694365742
H           0.02730263558501   -1.01758770868632   -1.11376781974328
H          -0.70460540217831   -2.20311526231973   -0.44047780635127
