45
-64.690216480602
C           4.01035174009947    1.14975689852338   -1.10246748070869
H           4.71535054298971    1.09857495892723   -0.26822490114800
O           2.81376887693682    0.47523402062511   -0.79742626807866
H           3.82011631743203    2.19971751996787   -1.34109428137541
H           4.44810485482455    0.65993979921766   -1.97212166800571
H           2.39221134020683    0.91020302073540    0.00096040534034
C          -1.42249024272151    3.34628694969670   -0.47180571519306
H          -1.83766358150571    3.84458100964088    0.40807607636619
O          -0.89929356207867    2.08099771584304   -0.13867113914128
H          -2.19908880805004    3.26329636564111   -1.23705600915934
H          -0.59984774631515    3.94350856894332   -0.86330227002581
H          -1.62826629904192    1.51980836438995    0.22140035630674
C          -2.73960401216003   -1.72872227887186   -1.98862792466951
H          -2.53844993855015   -2.68362883495677   -2.48051362987918
O          -2.63624383514233   -1.85381325779769   -0.58507864432724
H          -2.04452456474443   -0.97787915318925   -2.37359818808283
H          -3.76258937024948   -1.42687889669203   -2.21160348105249
H          -1.70549941690980   -2.07182059088825   -0.37663726173358
C           3.26824480079503   -2.42144424257474    1.02834554912627
H           4.33451655570977   -2.18009122868576    1.06141012050576
O           2.74874223308857   -2.25662631869968   -0.27314086207189
H           3.13661203931567   -3.46966782952514    1.29332127613612
H           2.73401462676040   -1.79822443978225    1.75112510231991
H           2.86768449416014   -1.32039587131330   -0.53090203991818
C          -0.69996105492796   -0.71546394756011    2.98324715630927
H          -1.04144990157172   -1.72794044021178    3.21491525685596
O           0.46345849213098   -0.74581853073319    2.18817394795083
H          -1.50676104040334   -0.17113981045325    2.48560222815273
H          -0.44053181958889   -0.20851696582339    3.91218765054608
H           0.24702626617018   -1.19300114191817    1.33439414799123
C          -4.24690145903493    0.95922645819234    0.49569087369571
H          -4.35021898334549    1.90631846205450    1.02518722295371
O          -2.92841900480570    0.50662636798073    0.69208537377547
H          -4.97038885594474    0.24681829384178    0.89900661052621
H          -4.45966585758459    1.11780838654806   -0.56676547484186
H          -2.83605828748119   -0.37594304213634    0.25475070033155
O           1.50510982213963    1.55849708007151    1.20775099771678
H           1.20670472275599    0.77374855799900    1.71056934148759
H           0.70035308991698    1.90851440072372    0.79517494690697
O           0.26693655445679    0.24899739416225   -1.87356130575394
H          -0.14198081110234    0.97419760707617   -1.37199523589610
H           1.22470513700654    0.36124525806887   -1.76390849476241
O           0.05292112505985   -1.85954141805831   -0.23585476942457
H           0.93195882271524   -2.27733687699628   -0.29672145456605
H           0.09379576962209   -1.11402714435971   -0.88042749004986
