6
-10.149006862877
O           1.38997793009430   -0.00028427383933    0.14572713243044
O          -1.43283461118071   -0.00000959999349   -0.12971184731971
H           1.65396630486173   -0.77272053170611   -0.35963637639783
H           1.65342463193453    0.77322477124278   -0.35827837303699
H          -0.48650547909799   -0.00038687810132    0.07824061663372
H          -1.89201016641477   -0.00004445972907    0.71138466286330
