9
-15.235024777401
O           0.25034637710315    1.57547420385609    0.11795429964532
H           0.18746838921892    2.13873448018549   -0.65508455793832
H          -0.56422682076733    1.04174915525773    0.13023286526249
O          -1.50430743992487   -0.55781991860308   -0.06905222627149
H          -1.90879368704560   -1.05730925605219    0.64183539729843
H          -0.64931681810938   -0.98183207061756   -0.25457120025251
O           1.25733079732501   -0.98463891892815   -0.15156480975182
H           1.86946082104926   -1.25631851050475    0.53364374347176
H           1.16771070709497   -0.01690299557262   -0.07119503409753
