9
-15.225648332247
O           2.59808943031456   -0.51116273062567    0.15747850066150
H           2.98531931897058    0.00561862232590   -0.55281917800514
H           2.85519285342630   -0.09449943526608    0.98319849965866
O          -2.59815810145633   -0.51115827639315   -0.15770785224797
H          -2.85474601582972   -0.09453963299181   -0.98360988366700
H          -2.98557769251122    0.00584325263864    0.55232508348104
O          -0.00006682662986    0.69326437699422    0.00028263853627
H          -0.76963279585694    0.10984586347642   -0.03231285660128
H           0.76957488598968    0.10996539988518    0.03316687940724
