15
-25.408247824930
O           0.90543329795414   -1.87070635644999   -0.09299139731998
H           0.38612889431397   -2.67408898422528   -0.03746947468823
H           0.63468658773136   -1.31537359461375    0.65750785979308
O          -0.14656781424409   -0.05707560865220    1.75263059016248
H          -0.94187900603676    0.06638706956220    1.17250132514023
H          -0.45892184485357   -0.03523955364085    2.65747752002099
O          -0.11520230345652    0.09957552479414   -1.75964064176787
H           0.29974464222027   -0.72124936749432   -1.44335733278493
H           0.42412327184196    0.80591041155912   -1.36044695788501
O           1.42092200315580    1.51557927568383    0.04543180509655
H           0.94470107759501    1.07048791484121    0.76560522130548
H           2.28593632819655    1.10352102661056    0.00453632103367
O          -2.08795521975499    0.28751057901504   -0.01093821199066
H          -2.46747048277252    1.16153772168682   -0.11277970631002
H          -1.46570122096369    0.17425173898248   -0.77784383498783
