18
-30.496506830333
O           0.99140026554844    1.46918457664388   -0.99632910675662
H           1.51055771771987    0.67985877825841   -1.19793015291395
H           1.04431644117102    1.52647299017511   -0.01784190975478
O          -1.66881867888170    0.07205250111794    1.42883231569709
H          -2.25623788290508    0.61391170297304    1.95640124894055
H          -1.73746496767138    0.39118371997602    0.50809795271473
O           1.04052047651500    0.77083625821490    1.60383582812138
H           1.51836308946430    0.01605933183486    1.23277552596136
H           0.12067977102780    0.47528156034950    1.70497816180968
O          -1.50410375201678    0.71247848561383   -1.23116642775487
H          -0.56166497159109    1.04532297253393   -1.20241400874500
H          -1.96292603714335    1.26144729943920   -1.86700412730736
O           1.85925835399284   -1.15929641531925   -0.32847249094625
H           0.93973625629909   -1.49824253761386   -0.42515177176793
H           2.43860760914535   -1.91029411846690   -0.45589873966127
O          -0.72892683528581   -1.87094215100063   -0.49813801839914
H          -1.06585307000842   -1.73687320963416    0.39458183969011
H          -1.08389743007046   -1.12704446428594   -1.00905275682006
